<NUMBER OF ZONES> 3264					
<NUMBER OF NODES> 33113					
<FIRST THRU NODE> 3265					
<NUMBER OF LINKS> 75379
<ORIGINAL HEADER>~	from	to	total capacity	length (km)	fftt (min)	alpha	beta	ff speed (km/h)	critical speed (km/h)	lanes	
<END OF METADATA>					
					

~	init_node	term_node	capacity	length	free_flow_time	b	power	speed	critical_speed	lanes	;
	1	6706	2880	0.904	2.26	0.25	4	24	19.2	2	
	2	33087	2880	0.027	0.07	0.25	4	24	19.2	2	
	3	30799	2880	0.257	0.64	0.25	4	24	19.2	2	
	4	30800	2880	0.123	0.31	0.25	4	24	19.2	2	
	5	6692	2880	0.068	0.17	0.25	4	24	19.2	2	
	6	30791	2880	0.103	0.26	0.25	4	24	19.2	2	
	7	30801	2880	0.068	0.17	0.25	4	24	19.2	2	
	8	30789	2880	0.033	0.08	0.25	4	24	19.2	2	
	9	30802	2880	0.029	0.07	0.25	4	24	19.2	2	
	10	28781	2880	0.066	0.17	0.25	4	24	19.2	2	
	11	27554	2880	0.044	0.11	0.25	4	24	19.2	2	
	12	30741	2880	0.023	0.06	0.25	4	24	19.2	2	
	13	27553	2880	0.107	0.27	0.25	4	24	19.2	2	
	14	6706	2880	0.069	0.17	0.25	4	24	19.2	2	
	15	27548	2880	0.068	0.17	0.25	4	24	19.2	2	
	16	27550	2880	0.047	0.12	0.25	4	24	19.2	2	
	17	27557	2880	0.138	0.35	0.25	4	24	19.2	2	
	18	30803	2880	0.034	0.09	0.25	4	24	19.2	2	
	19	27555	2880	0.051	0.13	0.25	4	24	19.2	2	
	20	31095	2880	0.034	0.09	0.25	4	24	19.2	2	
	21	30788	2880	0.03	0.08	0.25	4	24	19.2	2	
	22	30792	2880	0.041	0.10	0.25	4	24	19.2	2	
	23	30965	2880	0.059	0.15	0.25	4	24	19.2	2	
	24	27546	2880	0.218	0.55	0.25	4	24	19.2	2	
	25	6710	2880	0.043	0.11	0.25	4	24	19.2	2	
	26	30966	2880	0.039	0.10	0.25	4	24	19.2	2	
	27	30024	2880	0.03	0.08	0.25	4	24	19.2	2	
	28	27557	2880	0.111	0.28	0.25	4	24	19.2	2	
	29	29632	2880	0.014	0.04	0.25	4	24	19.2	2	
	29	30257	2880	0.015	0.04	0.25	4	24	19.2	2	
	30	30250	2880	0.016	0.04	0.25	4	24	19.2	2	
	31	30252	2880	0.015	0.04	0.25	4	24	19.2	2	
	32	30258	2880	0.02	0.05	0.25	4	24	19.2	2	
	33	30253	2880	0.029	0.07	0.25	4	24	19.2	2	
	34	30260	2880	0.018	0.05	0.25	4	24	19.2	2	
	35	30255	2880	0.02	0.05	0.25	4	24	19.2	2	
	36	29633	2880	0.024	0.06	0.25	4	24	19.2	2	
	36	29634	2880	0.056	0.14	0.25	4	24	19.2	2	
	37	30262	2880	0.022	0.06	0.25	4	24	19.2	2	
	38	28275	2880	0.068	0.17	0.25	4	24	19.2	2	
	39	29337	2880	0.034	0.09	0.25	4	24	19.2	2	
	39	29480	2880	0.033	0.08	0.25	4	24	19.2	2	
	40	29992	2880	0.024	0.06	0.25	4	24	19.2	2	
	41	29993	2880	0.037	0.09	0.25	4	24	19.2	2	
	41	30345	2880	0.033	0.08	0.25	4	24	19.2	2	
	42	29984	2880	0.034	0.09	0.25	4	24	19.2	2	
	43	29984	2880	0.063	0.16	0.25	4	24	19.2	2	
	43	29994	2880	0.029	0.07	0.25	4	24	19.2	2	
	44	29984	2880	0.039	0.10	0.25	4	24	19.2	2	
	44	29994	2880	0.029	0.07	0.25	4	24	19.2	2	
	45	29965	2880	0.026	0.07	0.25	4	24	19.2	2	
	45	29966	2880	0.014	0.04	0.25	4	24	19.2	2	
	46	29964	2880	0.035	0.09	0.25	4	24	19.2	2	
	46	30025	2880	0.042	0.11	0.25	4	24	19.2	2	
	47	29985	2880	0.029	0.07	0.25	4	24	19.2	2	
	48	29996	2880	0.042	0.11	0.25	4	24	19.2	2	
	48	30027	2880	0.017	0.04	0.25	4	24	19.2	2	
	49	30026	2880	0.023	0.06	0.25	4	24	19.2	2	
	50	29999	2880	0.028	0.07	0.25	4	24	19.2	2	
	51	29997	2880	0.013	0.03	0.25	4	24	19.2	2	
	51	29998	2880	0.051	0.13	0.25	4	24	19.2	2	
	52	28513	2880	0.027	0.07	0.25	4	24	19.2	2	
	53	6770	2880	0.03	0.08	0.25	4	24	19.2	2	
	54	30028	2880	0.059	0.15	0.25	4	24	19.2	2	
	54	30029	2880	0.032	0.08	0.25	4	24	19.2	2	
	55	29969	2880	0.02	0.05	0.25	4	24	19.2	2	
	56	6821	2880	0.031	0.08	0.25	4	24	19.2	2	
	57	29957	2880	0.041	0.10	0.25	4	24	19.2	2	
	57	30285	2880	0.017	0.04	0.25	4	24	19.2	2	
	58	30159	2880	0.034	0.09	0.25	4	24	19.2	2	
	59	29958	2880	0.027	0.07	0.25	4	24	19.2	2	
	59	29960	2880	0.018	0.05	0.25	4	24	19.2	2	
	60	29959	2880	0.019	0.05	0.25	4	24	19.2	2	
	60	30031	2880	0.037	0.09	0.25	4	24	19.2	2	
	61	27560	2880	0.03	0.08	0.25	4	24	19.2	2	
	62	29961	2880	0.044	0.11	0.25	4	24	19.2	2	
	63	29962	2880	0.072	0.18	0.25	4	24	19.2	2	
	63	30030	2880	0.021	0.05	0.25	4	24	19.2	2	
	64	30186	2880	0.025	0.06	0.25	4	24	19.2	2	
	65	29963	2880	0.068	0.17	0.25	4	24	19.2	2	
	65	30264	2880	0.018	0.05	0.25	4	24	19.2	2	
	66	29950	2880	0.048	0.12	0.25	4	24	19.2	2	
	66	29951	2880	0.043	0.11	0.25	4	24	19.2	2	
	66	30280	2880	0.033	0.08	0.25	4	24	19.2	2	
	67	29301	2880	0.041	0.10	0.25	4	24	19.2	2	
	68	29955	2880	0.07	0.18	0.25	4	24	19.2	2	
	68	29956	2880	0.051	0.13	0.25	4	24	19.2	2	
	69	29953	2880	0.058	0.15	0.25	4	24	19.2	2	
	69	30187	2880	0.038	0.10	0.25	4	24	19.2	2	
	70	30185	2880	0.021	0.05	0.25	4	24	19.2	2	
	71	27537	2880	0.034	0.09	0.25	4	24	19.2	2	
	72	29952	2880	0.035	0.09	0.25	4	24	19.2	2	
	72	30286	2880	0.025	0.06	0.25	4	24	19.2	2	
	73	29954	2880	0.03	0.08	0.25	4	24	19.2	2	
	74	30277	2880	0.024	0.06	0.25	4	24	19.2	2	
	75	29313	2880	0.019	0.05	0.25	4	24	19.2	2	
	76	29054	2880	0.017	0.04	0.25	4	24	19.2	2	
	76	30278	2880	0.033	0.08	0.25	4	24	19.2	2	
	77	30032	2880	0.04	0.10	0.25	4	24	19.2	2	
	77	30287	2880	0.015	0.04	0.25	4	24	19.2	2	
	78	29635	2880	0.022	0.06	0.25	4	24	19.2	2	
	78	30033	2880	0.019	0.05	0.25	4	24	19.2	2	
	78	30307	2880	0.017	0.04	0.25	4	24	19.2	2	
	79	29967	2880	0.029	0.07	0.25	4	24	19.2	2	
	79	29968	2880	0.035	0.09	0.25	4	24	19.2	2	
	79	30035	2880	0.025	0.06	0.25	4	24	19.2	2	
	80	30034	2880	0.031	0.08	0.25	4	24	19.2	2	
	80	30308	2880	0.054	0.14	0.25	4	24	19.2	2	
	81	28534	2880	0.088	0.22	0.25	4	24	19.2	2	
	81	29057	2880	0.129	0.32	0.25	4	24	19.2	2	
	82	6691	2880	0.152	0.38	0.25	4	24	19.2	2	
	82	6716	2880	0.043	0.11	0.25	4	24	19.2	2	
	82	29056	2880	0.038	0.10	0.25	4	24	19.2	2	
	83	28158	2880	0.023	0.06	0.25	4	24	19.2	2	
	84	6711	2880	0.083	0.21	0.25	4	24	19.2	2	
	84	6740	2880	0.033	0.08	0.25	4	24	19.2	2	
	85	29259	2880	0.042	0.11	0.25	4	24	19.2	2	
	86	28546	2880	0.037	0.09	0.25	4	24	19.2	2	
	86	29252	2880	0.042	0.11	0.25	4	24	19.2	2	
	86	29254	2880	0.042	0.11	0.25	4	24	19.2	2	
	87	29970	2880	0.02	0.05	0.25	4	24	19.2	2	
	87	29971	2880	0.082	0.21	0.25	4	24	19.2	2	
	87	30136	2880	0.074	0.19	0.25	4	24	19.2	2	
	88	6760	2880	0.054	0.14	0.25	4	24	19.2	2	
	88	6769	2880	0.05	0.13	0.25	4	24	19.2	2	
	89	29972	2880	0.035	0.09	0.25	4	24	19.2	2	
	90	29058	2880	0.064	0.16	0.25	4	24	19.2	2	
	90	29973	2880	0.033	0.08	0.25	4	24	19.2	2	
	91	6788	2880	0.032	0.08	0.25	4	24	19.2	2	
	92	30157	2880	0.026	0.07	0.25	4	24	19.2	2	
	93	27561	2880	0.028	0.07	0.25	4	24	19.2	2	
	94	6851	2880	0.035	0.09	0.25	4	24	19.2	2	
	95	30158	2880	0.023	0.06	0.25	4	24	19.2	2	
	96	29949	2880	0.064	0.16	0.25	4	24	19.2	2	
	97	30154	2880	0.035	0.09	0.25	4	24	19.2	2	
	98	30036	2880	0.04	0.10	0.25	4	24	19.2	2	
	98	30271	2880	0.033	0.08	0.25	4	24	19.2	2	
	99	29636	2880	0.015	0.04	0.25	4	24	19.2	2	
	99	30183	2880	0.028	0.07	0.25	4	24	19.2	2	
	100	27540	2880	0.021	0.05	0.25	4	24	19.2	2	
	101	27745	2880	0.026	0.07	0.25	4	24	19.2	2	
	102	27539	2880	0.033	0.08	0.25	4	24	19.2	2	
	102	27543	2880	0.044	0.11	0.25	4	24	19.2	2	
	102	29051	2880	0.039	0.10	0.25	4	24	19.2	2	
	102	29052	2880	0.043	0.11	0.25	4	24	19.2	2	
	103	29313	2880	0.044	0.11	0.25	4	24	19.2	2	
	103	30284	2880	0.036	0.09	0.25	4	24	19.2	2	
	104	29323	2880	0.028	0.07	0.25	4	24	19.2	2	
	105	29637	2880	0.015	0.04	0.25	4	24	19.2	2	
	105	30037	2880	0.023	0.06	0.25	4	24	19.2	2	
	106	29638	2880	0.022	0.06	0.25	4	24	19.2	2	
	106	29639	2880	0.041	0.10	0.25	4	24	19.2	2	
	107	29641	2880	0.032	0.08	0.25	4	24	19.2	2	
	107	29643	2880	0.039	0.10	0.25	4	24	19.2	2	
	108	29335	2880	0.019	0.05	0.25	4	24	19.2	2	
	109	29321	2880	0.045	0.11	0.25	4	24	19.2	2	
	109	29640	2880	0.046	0.12	0.25	4	24	19.2	2	
	110	29644	2880	0.035	0.09	0.25	4	24	19.2	2	
	110	29645	2880	0.072	0.18	0.25	4	24	19.2	2	
	110	30038	2880	0.03	0.08	0.25	4	24	19.2	2	
	111	29647	2880	0.014	0.04	0.25	4	24	19.2	2	
	111	30317	2880	0.045	0.11	0.25	4	24	19.2	2	
	112	29646	2880	0.033	0.08	0.25	4	24	19.2	2	
	112	30021	2880	0.014	0.04	0.25	4	24	19.2	2	
	113	28176	2880	0.025	0.06	0.25	4	24	19.2	2	
	114	30180	2880	0.021	0.05	0.25	4	24	19.2	2	
	115	30179	2880	0.022	0.06	0.25	4	24	19.2	2	
	116	27540	2880	0.035	0.09	0.25	4	24	19.2	2	
	117	29648	2880	0.02	0.05	0.25	4	24	19.2	2	
	117	29649	2880	0.019	0.05	0.25	4	24	19.2	2	
	118	29652	2880	0.038	0.10	0.25	4	24	19.2	2	
	118	30039	2880	0.017	0.04	0.25	4	24	19.2	2	
	119	29661	2880	0.023	0.06	0.25	4	24	19.2	2	
	120	29650	2880	0.024	0.06	0.25	4	24	19.2	2	
	120	29651	2880	0.015	0.04	0.25	4	24	19.2	2	
	120	30288	2880	0.023	0.06	0.25	4	24	19.2	2	
	121	29653	2880	0.016	0.04	0.25	4	24	19.2	2	
	121	29654	2880	0.018	0.05	0.25	4	24	19.2	2	
	122	29060	2880	0.021	0.05	0.25	4	24	19.2	2	
	123	29656	2880	0.015	0.04	0.25	4	24	19.2	2	
	123	29657	2880	0.031	0.08	0.25	4	24	19.2	2	
	124	29655	2880	0.025	0.06	0.25	4	24	19.2	2	
	124	29658	2880	0.033	0.08	0.25	4	24	19.2	2	
	125	29659	2880	0.024	0.06	0.25	4	24	19.2	2	
	125	30040	2880	0.016	0.04	0.25	4	24	19.2	2	
	126	29660	2880	0.02	0.05	0.25	4	24	19.2	2	
	126	30041	2880	0.02	0.05	0.25	4	24	19.2	2	
	127	30288	2880	0.025	0.06	0.25	4	24	19.2	2	
	128	29297	2880	0.023	0.06	0.25	4	24	19.2	2	
	129	29663	2880	0.023	0.06	0.25	4	24	19.2	2	
	129	30209	2880	0.028	0.07	0.25	4	24	19.2	2	
	130	29304	2880	0.037	0.09	0.25	4	24	19.2	2	
	130	30042	2880	0.036	0.09	0.25	4	24	19.2	2	
	131	29662	2880	0.04	0.10	0.25	4	24	19.2	2	
	131	29664	2880	0.031	0.08	0.25	4	24	19.2	2	
	131	29666	2880	0.018	0.05	0.25	4	24	19.2	2	
	132	29667	2880	0.015	0.04	0.25	4	24	19.2	2	
	132	29668	2880	0.042	0.11	0.25	4	24	19.2	2	
	133	30043	2880	0.021	0.05	0.25	4	24	19.2	2	
	133	30044	2880	0.041	0.10	0.25	4	24	19.2	2	
	133	30290	2880	0.072	0.18	0.25	4	24	19.2	2	
	134	29669	2880	0.028	0.07	0.25	4	24	19.2	2	
	134	30020	2880	0.014	0.04	0.25	4	24	19.2	2	
	135	29671	2880	0.027	0.07	0.25	4	24	19.2	2	
	135	30291	2880	0.02	0.05	0.25	4	24	19.2	2	
	136	29672	2880	0.02	0.05	0.25	4	24	19.2	2	
	136	30292	2880	0.017	0.04	0.25	4	24	19.2	2	
	137	29673	2880	0.017	0.04	0.25	4	24	19.2	2	
	137	29675	2880	0.026	0.07	0.25	4	24	19.2	2	
	137	30023	2880	0.02	0.05	0.25	4	24	19.2	2	
	138	29674	2880	0.036	0.09	0.25	4	24	19.2	2	
	138	30293	2880	0.017	0.04	0.25	4	24	19.2	2	
	139	29676	2880	0.015	0.04	0.25	4	24	19.2	2	
	139	29677	2880	0.015	0.04	0.25	4	24	19.2	2	
	140	29678	2880	0.018	0.05	0.25	4	24	19.2	2	
	140	29679	2880	0.033	0.08	0.25	4	24	19.2	2	
	141	29683	2880	0.07	0.18	0.25	4	24	19.2	2	
	141	30322	2880	0.005	0.01	0.25	4	24	19.2	2	
	142	29680	2880	0.017	0.04	0.25	4	24	19.2	2	
	142	29681	2880	0.043	0.11	0.25	4	24	19.2	2	
	142	29682	2880	0.023	0.06	0.25	4	24	19.2	2	
	143	28539	2880	0.022	0.06	0.25	4	24	19.2	2	
	144	30143	2880	0.017	0.04	0.25	4	24	19.2	2	
	145	29713	2880	0.016	0.04	0.25	4	24	19.2	2	
	145	29974	2880	0.034	0.09	0.25	4	24	19.2	2	
	145	29975	2880	0.026	0.07	0.25	4	24	19.2	2	
	146	29684	2880	0.12	0.30	0.25	4	24	19.2	2	
	146	30018	2880	0.018	0.05	0.25	4	24	19.2	2	
	147	28817	2880	0.015	0.04	0.25	4	24	19.2	2	
	147	29689	2880	0.024	0.06	0.25	4	24	19.2	2	
	148	29685	2880	0.087	0.22	0.25	4	24	19.2	2	
	148	30019	2880	0.037	0.09	0.25	4	24	19.2	2	
	149	29690	2880	0.015	0.04	0.25	4	24	19.2	2	
	149	29691	2880	0.017	0.04	0.25	4	24	19.2	2	
	150	29686	2880	0.016	0.04	0.25	4	24	19.2	2	
	150	29688	2880	0.016	0.04	0.25	4	24	19.2	2	
	151	28175	2880	0.017	0.04	0.25	4	24	19.2	2	
	151	29699	2880	0.07	0.18	0.25	4	24	19.2	2	
	152	29692	2880	0.02	0.05	0.25	4	24	19.2	2	
	152	29693	2880	0.035	0.09	0.25	4	24	19.2	2	
	153	27499	2880	0.04	0.10	0.25	4	24	19.2	2	
	154	29694	2880	0.021	0.05	0.25	4	24	19.2	2	
	154	29695	2880	0.026	0.07	0.25	4	24	19.2	2	
	155	28556	2880	0.027	0.07	0.25	4	24	19.2	2	
	156	29696	2880	0.019	0.05	0.25	4	24	19.2	2	
	156	29698	2880	0.093	0.23	0.25	4	24	19.2	2	
	156	30175	2880	0.031	0.08	0.25	4	24	19.2	2	
	157	29700	2880	0.018	0.05	0.25	4	24	19.2	2	
	157	29701	2880	0.018	0.05	0.25	4	24	19.2	2	
	158	29705	2880	0.018	0.05	0.25	4	24	19.2	2	
	158	29706	2880	0.04	0.10	0.25	4	24	19.2	2	
	159	29697	2880	0.026	0.07	0.25	4	24	19.2	2	
	160	29707	2880	0.076	0.19	0.25	4	24	19.2	2	
	160	29708	2880	0.02	0.05	0.25	4	24	19.2	2	
	161	29305	2880	0.033	0.08	0.25	4	24	19.2	2	
	162	30245	2880	0.058	0.15	0.25	4	24	19.2	2	
	163	29702	2880	0.079	0.20	0.25	4	24	19.2	2	
	163	29703	2880	0.018	0.05	0.25	4	24	19.2	2	
	163	30174	2880	0.038	0.10	0.25	4	24	19.2	2	
	164	29704	2880	0.026	0.07	0.25	4	24	19.2	2	
	164	30198	2880	0.031	0.08	0.25	4	24	19.2	2	
	165	6856	2880	0.032	0.08	0.25	4	24	19.2	2	
	166	29709	2880	0.045	0.11	0.25	4	24	19.2	2	
	166	29712	2880	0.016	0.04	0.25	4	24	19.2	2	
	167	29710	2880	0.014	0.04	0.25	4	24	19.2	2	
	167	29711	2880	0.037	0.09	0.25	4	24	19.2	2	
	168	29312	2880	0.049	0.12	0.25	4	24	19.2	2	
	168	30318	2880	0.016	0.04	0.25	4	24	19.2	2	
	169	30045	2880	0.022	0.06	0.25	4	24	19.2	2	
	169	30294	2880	0.022	0.06	0.25	4	24	19.2	2	
	170	29977	2880	0.015	0.04	0.25	4	24	19.2	2	
	170	29978	2880	0.019	0.05	0.25	4	24	19.2	2	
	171	29979	2880	0.023	0.06	0.25	4	24	19.2	2	
	171	30243	2880	0.036	0.09	0.25	4	24	19.2	2	
	172	29714	2880	0.019	0.05	0.25	4	24	19.2	2	
	172	29715	2880	0.02	0.05	0.25	4	24	19.2	2	
	172	29716	2880	0.049	0.12	0.25	4	24	19.2	2	
	172	29718	2880	0.045	0.11	0.25	4	24	19.2	2	
	173	6942	2880	0.025	0.06	0.25	4	24	19.2	2	
	174	29717	2880	0.024	0.06	0.25	4	24	19.2	2	
	175	29719	2880	0.034	0.09	0.25	4	24	19.2	2	
	175	29720	2880	0.035	0.09	0.25	4	24	19.2	2	
	175	29784	2880	0.046	0.12	0.25	4	24	19.2	2	
	176	28535	2880	0.056	0.14	0.25	4	24	19.2	2	
	176	29063	2880	0.014	0.04	0.25	4	24	19.2	2	
	176	29064	2880	0.078	0.20	0.25	4	24	19.2	2	
	177	29218	2880	0.026	0.07	0.25	4	24	19.2	2	
	178	29721	2880	0.022	0.06	0.25	4	24	19.2	2	
	178	29722	2880	0.033	0.08	0.25	4	24	19.2	2	
	178	29724	2880	0.035	0.09	0.25	4	24	19.2	2	
	179	29723	2880	0.049	0.12	0.25	4	24	19.2	2	
	179	30046	2880	0.024	0.06	0.25	4	24	19.2	2	
	179	30099	2880	0.044	0.11	0.25	4	24	19.2	2	
	180	30091	2880	0.02	0.05	0.25	4	24	19.2	2	
	181	30116	2880	0.024	0.06	0.25	4	24	19.2	2	
	182	29725	2880	0.018	0.05	0.25	4	24	19.2	2	
	182	29726	2880	0.018	0.05	0.25	4	24	19.2	2	
	183	6728	2880	0.019	0.05	0.25	4	24	19.2	2	
	184	29730	2880	0.041	0.10	0.25	4	24	19.2	2	
	184	29731	2880	0.016	0.04	0.25	4	24	19.2	2	
	184	29732	2880	0.036	0.09	0.25	4	24	19.2	2	
	185	29727	2880	0.02	0.05	0.25	4	24	19.2	2	
	185	29728	2880	0.02	0.05	0.25	4	24	19.2	2	
	185	29729	2880	0.072	0.18	0.25	4	24	19.2	2	
	186	29232	2880	0.025	0.06	0.25	4	24	19.2	2	
	187	29733	2880	0.028	0.07	0.25	4	24	19.2	2	
	187	30116	2880	0.02	0.05	0.25	4	24	19.2	2	
	188	29246	2880	0.015	0.04	0.25	4	24	19.2	2	
	189	30124	2880	0.018	0.05	0.25	4	24	19.2	2	
	190	28552	2880	0.02	0.05	0.25	4	24	19.2	2	
	191	29734	2880	0.03	0.08	0.25	4	24	19.2	2	
	191	30126	2880	0.024	0.06	0.25	4	24	19.2	2	
	192	30274	2880	0.021	0.05	0.25	4	24	19.2	2	
	193	30047	2880	0.019	0.05	0.25	4	24	19.2	2	
	194	29735	2880	0.014	0.04	0.25	4	24	19.2	2	
	194	29739	2880	0.04	0.10	0.25	4	24	19.2	2	
	195	29736	2880	0.017	0.04	0.25	4	24	19.2	2	
	195	29737	2880	0.014	0.04	0.25	4	24	19.2	2	
	195	29738	2880	0.031	0.08	0.25	4	24	19.2	2	
	196	29740	2880	0.019	0.05	0.25	4	24	19.2	2	
	196	29741	2880	0.016	0.04	0.25	4	24	19.2	2	
	196	29742	2880	0.034	0.09	0.25	4	24	19.2	2	
	197	29743	2880	0.016	0.04	0.25	4	24	19.2	2	
	197	29744	2880	0.034	0.09	0.25	4	24	19.2	2	
	198	28552	2880	0.07	0.18	0.25	4	24	19.2	2	
	198	28556	2880	0.054	0.14	0.25	4	24	19.2	2	
	199	28154	2880	0.058	0.15	0.25	4	24	19.2	2	
	199	29476	2880	0.02	0.05	0.25	4	24	19.2	2	
	199	29745	2880	0.04	0.10	0.25	4	24	19.2	2	
	200	29746	2880	0.024	0.06	0.25	4	24	19.2	2	
	200	29747	2880	0.017	0.04	0.25	4	24	19.2	2	
	201	29748	2880	0.049	0.12	0.25	4	24	19.2	2	
	201	30295	2880	0.017	0.04	0.25	4	24	19.2	2	
	202	29263	2880	0.032	0.08	0.25	4	24	19.2	2	
	202	29749	2880	0.017	0.04	0.25	4	24	19.2	2	
	203	29750	2880	0.02	0.05	0.25	4	24	19.2	2	
	203	29751	2880	0.029	0.07	0.25	4	24	19.2	2	
	204	29295	2880	0.051	0.13	0.25	4	24	19.2	2	
	204	29752	2880	0.025	0.06	0.25	4	24	19.2	2	
	204	29753	2880	0.025	0.06	0.25	4	24	19.2	2	
	205	29754	2880	0.025	0.06	0.25	4	24	19.2	2	
	205	29755	2880	0.045	0.11	0.25	4	24	19.2	2	
	205	29756	2880	0.036	0.09	0.25	4	24	19.2	2	
	206	29757	2880	0.015	0.04	0.25	4	24	19.2	2	
	206	29758	2880	0.021	0.05	0.25	4	24	19.2	2	
	206	29759	2880	0.024	0.06	0.25	4	24	19.2	2	
	207	29762	2880	0.028	0.07	0.25	4	24	19.2	2	
	207	29763	2880	0.092	0.23	0.25	4	24	19.2	2	
	208	29291	2880	0.047	0.12	0.25	4	24	19.2	2	
	209	29760	2880	0.015	0.04	0.25	4	24	19.2	2	
	209	29761	2880	0.037	0.09	0.25	4	24	19.2	2	
	210	29764	2880	0.025	0.06	0.25	4	24	19.2	2	
	210	29765	2880	0.063	0.16	0.25	4	24	19.2	2	
	210	30297	2880	0.023	0.06	0.25	4	24	19.2	2	
	211	29766	2880	0.031	0.08	0.25	4	24	19.2	2	
	211	29767	2880	0.02	0.05	0.25	4	24	19.2	2	
	211	29768	2880	0.022	0.06	0.25	4	24	19.2	2	
	212	29769	2880	0.035	0.09	0.25	4	24	19.2	2	
	213	29770	2880	0.024	0.06	0.25	4	24	19.2	2	
	213	29771	2880	0.022	0.06	0.25	4	24	19.2	2	
	213	29772	2880	0.031	0.08	0.25	4	24	19.2	2	
	214	29773	2880	0.018	0.05	0.25	4	24	19.2	2	
	214	29774	2880	0.03	0.08	0.25	4	24	19.2	2	
	215	29776	2880	0.039	0.10	0.25	4	24	19.2	2	
	215	29777	2880	0.015	0.04	0.25	4	24	19.2	2	
	216	30049	2880	0.034	0.09	0.25	4	24	19.2	2	
	216	30513	2880	0.04	0.10	0.25	4	24	19.2	2	
	217	29779	2880	0.045	0.11	0.25	4	24	19.2	2	
	217	30051	2880	0.017	0.04	0.25	4	24	19.2	2	
	218	29778	2880	0.065	0.16	0.25	4	24	19.2	2	
	218	29780	2880	0.047	0.12	0.25	4	24	19.2	2	
	218	30050	2880	0.041	0.10	0.25	4	24	19.2	2	
	219	29781	2880	0.072	0.18	0.25	4	24	19.2	2	
	219	29783	2880	0.068	0.17	0.25	4	24	19.2	2	
	220	29785	2880	0.046	0.12	0.25	4	24	19.2	2	
	220	29786	2880	0.057	0.14	0.25	4	24	19.2	2	
	221	29788	2880	0.068	0.17	0.25	4	24	19.2	2	
	221	30323	2880	0.05	0.13	0.25	4	24	19.2	2	
	221	30324	2880	0.049	0.12	0.25	4	24	19.2	2	
	222	29790	2880	0.054	0.14	0.25	4	24	19.2	2	
	222	30213	2880	0.063	0.16	0.25	4	24	19.2	2	
	223	29791	2880	0.048	0.12	0.25	4	24	19.2	2	
	223	29792	2880	0.052	0.13	0.25	4	24	19.2	2	
	223	29991	2880	0.059	0.15	0.25	4	24	19.2	2	
	224	6988	2880	0.188	0.47	0.25	4	24	19.2	2	
	225	28527	2880	0.17	0.43	0.25	4	24	19.2	2	
	226	27535	2880	0.117	0.29	0.25	4	24	19.2	2	
	227	27533	2880	0.142	0.36	0.25	4	24	19.2	2	
	228	28584	2880	0.157	0.39	0.25	4	24	19.2	2	
	229	28525	2880	0.109	0.27	0.25	4	24	19.2	2	
	229	29627	2880	0.08	0.20	0.25	4	24	19.2	2	
	230	29224	2880	0.035	0.09	0.25	4	24	19.2	2	
	231	30052	2880	0.023	0.06	0.25	4	24	19.2	2	
	231	30298	2880	0.02	0.05	0.25	4	24	19.2	2	
	232	29794	2880	0.02	0.05	0.25	4	24	19.2	2	
	232	29795	2880	0.044	0.11	0.25	4	24	19.2	2	
	233	29797	2880	0.027	0.07	0.25	4	24	19.2	2	
	233	29799	2880	0.082	0.21	0.25	4	24	19.2	2	
	233	30118	2880	0.042	0.11	0.25	4	24	19.2	2	
	234	29796	2880	0.031	0.08	0.25	4	24	19.2	2	
	234	29798	2880	0.052	0.13	0.25	4	24	19.2	2	
	235	29800	2880	0.033	0.08	0.25	4	24	19.2	2	
	235	29801	2880	0.028	0.07	0.25	4	24	19.2	2	
	235	30279	2880	0.033	0.08	0.25	4	24	19.2	2	
	236	29807	2880	0.02	0.05	0.25	4	24	19.2	2	
	236	30053	2880	0.03	0.08	0.25	4	24	19.2	2	
	237	29802	2880	0.053	0.13	0.25	4	24	19.2	2	
	237	29803	2880	0.02	0.05	0.25	4	24	19.2	2	
	238	29804	2880	0.018	0.05	0.25	4	24	19.2	2	
	238	29805	2880	0.043	0.11	0.25	4	24	19.2	2	
	239	29798	2880	0.023	0.06	0.25	4	24	19.2	2	
	240	29812	2880	0.031	0.08	0.25	4	24	19.2	2	
	240	30055	2880	0.021	0.05	0.25	4	24	19.2	2	
	241	29806	2880	0.017	0.04	0.25	4	24	19.2	2	
	241	30054	2880	0.05	0.13	0.25	4	24	19.2	2	
	242	29808	2880	0.021	0.05	0.25	4	24	19.2	2	
	242	29809	2880	0.037	0.09	0.25	4	24	19.2	2	
	242	30299	2880	0.02	0.05	0.25	4	24	19.2	2	
	243	29810	2880	0.043	0.11	0.25	4	24	19.2	2	
	243	30344	2880	0.02	0.05	0.25	4	24	19.2	2	
	244	29814	2880	0.019	0.05	0.25	4	24	19.2	2	
	244	29815	2880	0.06	0.15	0.25	4	24	19.2	2	
	244	29816	2880	0.073	0.18	0.25	4	24	19.2	2	
	244	30056	2880	0.035	0.09	0.25	4	24	19.2	2	
	245	29811	2880	0.048	0.12	0.25	4	24	19.2	2	
	245	29812	2880	0.044	0.11	0.25	4	24	19.2	2	
	245	29813	2880	0.028	0.07	0.25	4	24	19.2	2	
	246	6779	2880	0.037	0.09	0.25	4	24	19.2	2	
	247	6806	2880	0.03	0.08	0.25	4	24	19.2	2	
	248	29819	2880	0.023	0.06	0.25	4	24	19.2	2	
	249	28558	2880	0.026	0.07	0.25	4	24	19.2	2	
	250	29817	2880	0.021	0.05	0.25	4	24	19.2	2	
	250	29818	2880	0.04	0.10	0.25	4	24	19.2	2	
	251	28559	2880	0.027	0.07	0.25	4	24	19.2	2	
	252	27598	2880	0.047	0.12	0.25	4	24	19.2	2	
	253	6806	2880	0.072	0.18	0.25	4	24	19.2	2	
	253	29990	2880	0.027	0.07	0.25	4	24	19.2	2	
	254	30283	2880	0.022	0.06	0.25	4	24	19.2	2	
	254	30319	2880	0.064	0.16	0.25	4	24	19.2	2	
	255	30320	2880	0.097	0.24	0.25	4	24	19.2	2	
	255	30343	2880	0.017	0.04	0.25	4	24	19.2	2	
	256	29989	2880	0.033	0.08	0.25	4	24	19.2	2	
	256	30148	2880	0.058	0.15	0.25	4	24	19.2	2	
	257	6796	2880	0.077	0.19	0.25	4	24	19.2	2	
	257	29988	2880	0.039	0.10	0.25	4	24	19.2	2	
	258	29291	2880	0.037	0.09	0.25	4	24	19.2	2	
	258	29981	2880	0.052	0.13	0.25	4	24	19.2	2	
	258	29982	2880	0.048	0.12	0.25	4	24	19.2	2	
	259	29983	2880	0.079	0.20	0.25	4	24	19.2	2	
	259	30282	2880	0.02	0.05	0.25	4	24	19.2	2	
	260	30057	2880	0.102	0.26	0.25	4	24	19.2	2	
	260	30194	2880	0.019	0.05	0.25	4	24	19.2	2	
	261	29986	2880	0.042	0.11	0.25	4	24	19.2	2	
	261	29987	2880	0.06	0.15	0.25	4	24	19.2	2	
	262	29980	2880	0.072	0.18	0.25	4	24	19.2	2	
	262	30325	2880	0.017	0.04	0.25	4	24	19.2	2	
	263	29285	2880	0.025	0.06	0.25	4	24	19.2	2	
	264	29311	2880	0.027	0.07	0.25	4	24	19.2	2	
	264	30193	2880	0.031	0.08	0.25	4	24	19.2	2	
	265	29824	2880	0.026	0.07	0.25	4	24	19.2	2	
	265	30199	2880	0.034	0.09	0.25	4	24	19.2	2	
	266	29820	2880	0.111	0.28	0.25	4	24	19.2	2	
	266	29821	2880	0.02	0.05	0.25	4	24	19.2	2	
	266	29822	2880	0.028	0.07	0.25	4	24	19.2	2	
	266	29823	2880	0.028	0.07	0.25	4	24	19.2	2	
	267	29317	2880	0.042	0.11	0.25	4	24	19.2	2	
	268	29229	2880	0.09	0.23	0.25	4	24	19.2	2	
	269	29825	2880	0.039	0.10	0.25	4	24	19.2	2	
	269	29826	2880	0.036	0.09	0.25	4	24	19.2	2	
	269	29827	2880	0.04	0.10	0.25	4	24	19.2	2	
	269	29834	2880	0.019	0.05	0.25	4	24	19.2	2	
	270	29828	2880	0.028	0.07	0.25	4	24	19.2	2	
	270	30058	2880	0.06	0.15	0.25	4	24	19.2	2	
	271	29831	2880	0.037	0.09	0.25	4	24	19.2	2	
	271	29832	2880	0.062	0.16	0.25	4	24	19.2	2	
	271	29833	2880	0.023	0.06	0.25	4	24	19.2	2	
	272	29829	2880	0.032	0.08	0.25	4	24	19.2	2	
	272	29830	2880	0.053	0.13	0.25	4	24	19.2	2	
	273	29835	2880	0.026	0.07	0.25	4	24	19.2	2	
	273	29836	2880	0.019	0.05	0.25	4	24	19.2	2	
	273	29837	2880	0.018	0.05	0.25	4	24	19.2	2	
	273	30300	2880	0.022	0.06	0.25	4	24	19.2	2	
	274	29841	2880	0.035	0.09	0.25	4	24	19.2	2	
	274	30059	2880	0.016	0.04	0.25	4	24	19.2	2	
	275	29840	2880	0.025	0.06	0.25	4	24	19.2	2	
	275	30060	2880	0.015	0.04	0.25	4	24	19.2	2	
	276	29839	2880	0.016	0.04	0.25	4	24	19.2	2	
	276	29844	2880	0.101	0.25	0.25	4	24	19.2	2	
	277	29838	2880	0.015	0.04	0.25	4	24	19.2	2	
	277	29843	2880	0.095	0.24	0.25	4	24	19.2	2	
	278	30061	2880	0.021	0.05	0.25	4	24	19.2	2	
	278	30269	2880	0.017	0.04	0.25	4	24	19.2	2	
	279	29847	2880	0.017	0.04	0.25	4	24	19.2	2	
	279	29848	2880	0.021	0.05	0.25	4	24	19.2	2	
	279	29849	2880	0.045	0.11	0.25	4	24	19.2	2	
	280	29845	2880	0.018	0.05	0.25	4	24	19.2	2	
	280	29850	2880	0.032	0.08	0.25	4	24	19.2	2	
	281	29851	2880	0.085	0.21	0.25	4	24	19.2	2	
	281	29852	2880	0.017	0.04	0.25	4	24	19.2	2	
	282	29260	2880	0.041	0.10	0.25	4	24	19.2	2	
	282	29846	2880	0.022	0.06	0.25	4	24	19.2	2	
	283	29853	2880	0.02	0.05	0.25	4	24	19.2	2	
	283	29854	2880	0.042	0.11	0.25	4	24	19.2	2	
	284	29857	2880	0.04	0.10	0.25	4	24	19.2	2	
	284	29860	2880	0.094	0.24	0.25	4	24	19.2	2	
	284	30302	2880	0.036	0.09	0.25	4	24	19.2	2	
	285	29858	2880	0.024	0.06	0.25	4	24	19.2	2	
	285	29859	2880	0.024	0.06	0.25	4	24	19.2	2	
	285	29861	2880	0.063	0.16	0.25	4	24	19.2	2	
	286	30062	2880	0.019	0.05	0.25	4	24	19.2	2	
	286	30063	2880	0.036	0.09	0.25	4	24	19.2	2	
	287	29856	2880	0.076	0.19	0.25	4	24	19.2	2	
	287	30301	2880	0.035	0.09	0.25	4	24	19.2	2	
	288	29863	2880	0.034	0.09	0.25	4	24	19.2	2	
	288	29864	2880	0.052	0.13	0.25	4	24	19.2	2	
	288	29865	2880	0.032	0.08	0.25	4	24	19.2	2	
	289	29862	2880	0.034	0.09	0.25	4	24	19.2	2	
	289	30312	2880	0.015	0.04	0.25	4	24	19.2	2	
	290	29282	2880	0.037	0.09	0.25	4	24	19.2	2	
	291	29866	2880	0.036	0.09	0.25	4	24	19.2	2	
	291	29867	2880	0.027	0.07	0.25	4	24	19.2	2	
	291	29868	2880	0.072	0.18	0.25	4	24	19.2	2	
	292	29869	2880	0.025	0.06	0.25	4	24	19.2	2	
	292	29870	2880	0.09	0.23	0.25	4	24	19.2	2	
	293	30168	2880	0.03	0.08	0.25	4	24	19.2	2	
	294	29871	2880	0.018	0.05	0.25	4	24	19.2	2	
	294	29872	2880	0.038	0.10	0.25	4	24	19.2	2	
	294	29874	2880	0.033	0.08	0.25	4	24	19.2	2	
	295	29873	2880	0.022	0.06	0.25	4	24	19.2	2	
	295	30265	2880	0.042	0.11	0.25	4	24	19.2	2	
	296	29876	2880	0.032	0.08	0.25	4	24	19.2	2	
	296	29877	2880	0.024	0.06	0.25	4	24	19.2	2	
	297	29875	2880	0.028	0.07	0.25	4	24	19.2	2	
	297	30196	2880	0.036	0.09	0.25	4	24	19.2	2	
	298	6878	2880	0.086	0.22	0.25	4	24	19.2	2	
	299	29338	2880	0.086	0.22	0.25	4	24	19.2	2	
	299	29341	2880	0.065	0.16	0.25	4	24	19.2	2	
	300	6951	2880	0.126	0.32	0.25	4	24	19.2	2	
	301	29342	2880	0.024	0.06	0.25	4	24	19.2	2	
	301	29343	2880	0.037	0.09	0.25	4	24	19.2	2	
	302	6987	2880	0.052	0.13	0.25	4	24	19.2	2	
	303	6699	2880	0.061	0.15	0.25	4	24	19.2	2	
	304	6699	2880	0.064	0.16	0.25	4	24	19.2	2	
	304	29878	2880	0.06	0.15	0.25	4	24	19.2	2	
	305	30112	2880	0.029	0.07	0.25	4	24	19.2	2	
	306	29879	2880	0.023	0.06	0.25	4	24	19.2	2	
	306	29880	2880	0.032	0.08	0.25	4	24	19.2	2	
	307	29241	2880	0.025	0.06	0.25	4	24	19.2	2	
	308	29881	2880	0.025	0.06	0.25	4	24	19.2	2	
	308	30112	2880	0.029	0.07	0.25	4	24	19.2	2	
	309	29243	2880	0.032	0.08	0.25	4	24	19.2	2	
	309	29882	2880	0.023	0.06	0.25	4	24	19.2	2	
	310	29228	2880	0.065	0.16	0.25	4	24	19.2	2	
	310	29885	2880	0.048	0.12	0.25	4	24	19.2	2	
	310	30064	2880	0.043	0.11	0.25	4	24	19.2	2	
	311	29887	2880	0.039	0.10	0.25	4	24	19.2	2	
	311	30065	2880	0.024	0.06	0.25	4	24	19.2	2	
	312	29883	2880	0.037	0.09	0.25	4	24	19.2	2	
	312	30113	2880	0.034	0.09	0.25	4	24	19.2	2	
	313	29884	2880	0.025	0.06	0.25	4	24	19.2	2	
	313	29886	2880	0.037	0.09	0.25	4	24	19.2	2	
	313	30122	2880	0.046	0.12	0.25	4	24	19.2	2	
	314	29888	2880	0.031	0.08	0.25	4	24	19.2	2	
	314	29889	2880	0.035	0.09	0.25	4	24	19.2	2	
	314	30321	2880	0.05	0.13	0.25	4	24	19.2	2	
	315	30113	2880	0.034	0.09	0.25	4	24	19.2	2	
	315	30114	2880	0.037	0.09	0.25	4	24	19.2	2	
	316	30140	2880	0.043	0.11	0.25	4	24	19.2	2	
	316	30141	2880	0.037	0.09	0.25	4	24	19.2	2	
	317	29890	2880	0.029	0.07	0.25	4	24	19.2	2	
	317	29891	2880	0.044	0.11	0.25	4	24	19.2	2	
	317	30066	2880	0.056	0.14	0.25	4	24	19.2	2	
	318	29893	2880	0.03	0.08	0.25	4	24	19.2	2	
	318	29894	2880	0.104	0.26	0.25	4	24	19.2	2	
	319	30164	2880	0.023	0.06	0.25	4	24	19.2	2	
	320	28152	2880	0.042	0.11	0.25	4	24	19.2	2	
	320	29892	2880	0.031	0.08	0.25	4	24	19.2	2	
	321	29280	2880	0.035	0.09	0.25	4	24	19.2	2	
	321	29895	2880	0.026	0.07	0.25	4	24	19.2	2	
	322	29897	2880	0.017	0.04	0.25	4	24	19.2	2	
	322	29898	2880	0.036	0.09	0.25	4	24	19.2	2	
	323	29896	2880	0.03	0.08	0.25	4	24	19.2	2	
	323	29899	2880	0.043	0.11	0.25	4	24	19.2	2	
	324	29900	2880	0.019	0.05	0.25	4	24	19.2	2	
	324	29904	2880	0.043	0.11	0.25	4	24	19.2	2	
	325	29901	2880	0.049	0.12	0.25	4	24	19.2	2	
	325	29902	2880	0.027	0.07	0.25	4	24	19.2	2	
	326	29289	2880	0.03	0.08	0.25	4	24	19.2	2	
	327	30163	2880	0.019	0.05	0.25	4	24	19.2	2	
	328	29905	2880	0.019	0.05	0.25	4	24	19.2	2	
	328	29906	2880	0.02	0.05	0.25	4	24	19.2	2	
	328	29909	2880	0.016	0.04	0.25	4	24	19.2	2	
	329	29903	2880	0.028	0.07	0.25	4	24	19.2	2	
	329	29907	2880	0.043	0.11	0.25	4	24	19.2	2	
	329	29908	2880	0.045	0.11	0.25	4	24	19.2	2	
	330	6867	2880	0.134	0.34	0.25	4	24	19.2	2	
	330	6950	2880	0.124	0.31	0.25	4	24	19.2	2	
	331	29333	2880	0.086	0.22	0.25	4	24	19.2	2	
	331	29340	2880	0.083	0.21	0.25	4	24	19.2	2	
	332	6950	2880	0.041	0.10	0.25	4	24	19.2	2	
	333	29326	2880	0.043	0.11	0.25	4	24	19.2	2	
	334	29910	2880	0.058	0.15	0.25	4	24	19.2	2	
	334	29911	2880	0.016	0.04	0.25	4	24	19.2	2	
	334	30067	2880	0.022	0.06	0.25	4	24	19.2	2	
	335	30089	2880	0.05	0.13	0.25	4	24	19.2	2	
	336	29912	2880	0.048	0.12	0.25	4	24	19.2	2	
	336	29913	2880	0.042	0.11	0.25	4	24	19.2	2	
	337	29919	2880	0.025	0.06	0.25	4	24	19.2	2	
	338	29220	2880	0.041	0.10	0.25	4	24	19.2	2	
	339	29914	2880	0.026	0.07	0.25	4	24	19.2	2	
	340	29261	2880	0.046	0.12	0.25	4	24	19.2	2	
	341	29920	2880	0.017	0.04	0.25	4	24	19.2	2	
	341	29921	2880	0.052	0.13	0.25	4	24	19.2	2	
	342	29916	2880	0.037	0.09	0.25	4	24	19.2	2	
	342	29918	2880	0.069	0.17	0.25	4	24	19.2	2	
	343	29915	2880	0.049	0.12	0.25	4	24	19.2	2	
	343	29917	2880	0.035	0.09	0.25	4	24	19.2	2	
	344	6733	2880	0.024	0.06	0.25	4	24	19.2	2	
	345	29269	2880	0.039	0.10	0.25	4	24	19.2	2	
	345	30022	2880	0.024	0.06	0.25	4	24	19.2	2	
	346	29922	2880	0.054	0.14	0.25	4	24	19.2	2	
	346	30326	2880	0.038	0.10	0.25	4	24	19.2	2	
	347	29923	2880	0.038	0.10	0.25	4	24	19.2	2	
	347	29924	2880	0.033	0.08	0.25	4	24	19.2	2	
	348	29261	2880	0.025	0.06	0.25	4	24	19.2	2	
	349	29269	2880	0.029	0.07	0.25	4	24	19.2	2	
	350	6827	2880	0.059	0.15	0.25	4	24	19.2	2	
	350	29925	2880	0.029	0.07	0.25	4	24	19.2	2	
	351	29277	2880	0.069	0.17	0.25	4	24	19.2	2	
	351	29477	2880	0.063	0.16	0.25	4	24	19.2	2	
	352	29277	2880	0.035	0.09	0.25	4	24	19.2	2	
	353	6777	2880	0.06	0.15	0.25	4	24	19.2	2	
	353	28165	2880	0.05	0.13	0.25	4	24	19.2	2	
	354	29926	2880	0.065	0.16	0.25	4	24	19.2	2	
	354	30068	2880	0.027	0.07	0.25	4	24	19.2	2	
	355	29927	2880	0.025	0.06	0.25	4	24	19.2	2	
	355	30000	2880	0.068	0.17	0.25	4	24	19.2	2	
	356	28167	2880	0.016	0.04	0.25	4	24	19.2	2	
	357	6765	2880	0.109	0.27	0.25	4	24	19.2	2	
	357	6810	2880	0.109	0.27	0.25	4	24	19.2	2	
	357	30003	2880	0.014	0.04	0.25	4	24	19.2	2	
	357	30069	2880	0.096	0.24	0.25	4	24	19.2	2	
	357	30070	2880	0.107	0.27	0.25	4	24	19.2	2	
	358	30001	2880	0.034	0.09	0.25	4	24	19.2	2	
	358	30002	2880	0.104	0.26	0.25	4	24	19.2	2	
	359	29278	2880	0.027	0.07	0.25	4	24	19.2	2	
	359	29281	2880	0.039	0.10	0.25	4	24	19.2	2	
	360	6853	2880	0.088	0.22	0.25	4	24	19.2	2	
	360	29929	2880	0.039	0.10	0.25	4	24	19.2	2	
	361	29277	2880	0.031	0.08	0.25	4	24	19.2	2	
	362	29928	2880	0.033	0.08	0.25	4	24	19.2	2	
	362	30071	2880	0.042	0.11	0.25	4	24	19.2	2	
	363	6818	2880	0.055	0.14	0.25	4	24	19.2	2	
	363	30303	2880	0.032	0.08	0.25	4	24	19.2	2	
	364	27586	2880	0.047	0.12	0.25	4	24	19.2	2	
	364	30072	2880	0.061	0.15	0.25	4	24	19.2	2	
	364	30074	2880	0.048	0.12	0.25	4	24	19.2	2	
	365	29930	2880	0.033	0.08	0.25	4	24	19.2	2	
	365	30192	2880	0.032	0.08	0.25	4	24	19.2	2	
	366	30073	2880	0.03	0.08	0.25	4	24	19.2	2	
	366	30182	2880	0.032	0.08	0.25	4	24	19.2	2	
	367	29294	2880	0.067	0.17	0.25	4	24	19.2	2	
	367	29931	2880	0.03	0.08	0.25	4	24	19.2	2	
	367	30304	2880	0.052	0.13	0.25	4	24	19.2	2	