<NUMBER OF NODES> 	5 
<NUMBER OF LINKS> 	7 
<END OF METADATA> 	 


~ 	Tail	Head	;
    1	0	1	    ;
    2	0	2	    ;
    3	1	2	    ;
    4	1	3	    ;
    5	1	4	    ;
    6	2	3	    ;
    7	3	4	    ;



  
