<NUMBER OF ZONES> 742
<NUMBER OF NODES> 742
<NUMBER OF LINKS> 1872
<ORIGINAL HEADER>~ 	Init node 	Term node 	Capacity 	Length 	Free Flow Time 	B	Power	Speed limit 	Toll 	Type	;
<END OF METADATA>




~	init_node	term_node	capacity	length	free_flow_time	b	power	speed	toll	link_type	;
	75674	75778	1538	0.539	83.5	0.15	4	45.0	0	46	;
	75778	75674	1538	0.539	83.5	0.15	4	45.0	0	46	;
	75797	75962	2538	1.224	65.4	0.15	4	80.0	0	25	;
	75962	75797	2538	1.224	65.4	0.15	4	80.0	0	25	;
	75962	76124	2538	1.101	72.7	0.15	4	80.0	0	25	;
	76124	75962	2538	1.101	72.7	0.15	4	80.0	0	25	;
	75794	75797	1833	0.12	541.7	0.15	4	65.0	0	53	;
	75797	75794	1833	0.12	541.7	0.15	4	65.0	0	53	;
	76885	76894	800	0.591	50.8	0.15	4	30.0	0	75	;
	76894	76885	800	0.591	50.8	0.15	4	30.0	0	75	;
	76885	76925	800	0.521	57.6	0.15	4	30.0	0	75	;
	76925	76885	800	0.521	57.6	0.15	4	30.0	0	75	;
	76753	76757	1000	0.063	634.9	0.15	4	40.0	0	67	;
	76757	76753	1000	0.063	634.9	0.15	4	40.0	0	67	;
	77956	77965	2908	0.336	178.6	0.15	4	60.0	0	33	;
	77965	77956	2908	0.336	178.6	0.15	4	60.0	0	33	;
	78994	79188	750	1.58	34.8	0.15	4	55.0	0	57	;
	79188	78994	750	1.58	34.8	0.15	4	55.0	0	57	;
	78969	78994	750	0.212	188.7	0.15	4	40.0	0	67	;
	78994	78969	750	0.212	188.7	0.15	4	40.0	0	67	;
	76735	76753	1000	0.146	274.0	0.15	4	40.0	0	67	;
	76753	76735	1000	0.146	274.0	0.15	4	40.0	0	67	;
	78845	78886	4875	0.129	1085.3	0.15	4	140.0	0	10	;
	78886	78845	4875	0.129	1085.3	0.15	4	140.0	0	10	;
	76735	76767	900	0.159	188.7	0.15	4	30.0	0	68	;
	76767	76735	900	0.159	188.7	0.15	4	30.0	0	68	;
	76704	76735	1000	0.207	193.2	0.15	4	40.0	0	67	;
	76735	76704	1000	0.207	193.2	0.15	4	40.0	0	67	;
	77907	77935	1800	0.794	63.0	0.15	4	50.0	0	37	;
	77935	77907	1800	0.794	63.0	0.15	4	50.0	0	37	;
	77873	77907	1800	1.429	35.0	0.15	4	50.0	0	37	;
	77907	77873	1800	1.429	35.0	0.15	4	50.0	0	37	;
	77935	77956	1800	0.332	150.6	0.15	4	50.0	0	37	;
	77956	77935	1800	0.332	150.6	0.15	4	50.0	0	37	;
	78833	78845	4875	0.035	4000.0	0.15	4	140.0	0	10	;
	78845	78833	6500	0.035	3714.3	0.15	4	130.0	0	6	;
	77405	77428	2200	1.02	49.0	0.15	4	50.0	0	64	;
	77428	77405	2200	1.02	49.0	0.15	4	50.0	0	64	;
	77387	77405	900	0.494	60.7	0.15	4	30.0	0	68	;
	77405	77387	900	0.494	60.7	0.15	4	30.0	0	68	;
	77823	77956	900	0.432	69.4	0.15	4	30.0	0	68	;
	77956	77823	900	0.432	69.4	0.15	4	30.0	0	68	;
	77007	77142	1000	1.678	23.8	0.15	4	40.0	0	67	;
	77142	77007	1000	1.678	23.8	0.15	4	40.0	0	67	;
	73607	73751	1100	0.597	108.9	0.15	4	65.0	0	56	;
	73751	73607	1100	0.597	108.9	0.15	4	65.0	0	56	;
	74509	74723	2600	0.745	67.1	0.15	4	50.0	0	37	;
	74723	74509	2600	0.745	67.1	0.15	4	50.0	0	37	;
	74997	75109	900	0.967	31.0	0.15	4	30.0	0	68	;
	75109	74997	900	0.967	31.0	0.15	4	30.0	0	68	;
	74925	75006	2600	0.225	222.2	0.15	4	50.0	0	37	;
	75006	74925	2600	0.225	222.2	0.15	4	50.0	0	37	;
	75006	75318	2600	0.815	61.3	0.15	4	50.0	0	37	;
	75318	75006	2600	0.815	61.3	0.15	4	50.0	0	37	;
	75318	75920	2600	1.85	27.0	0.15	4	50.0	0	37	;
	75920	75318	2600	1.85	27.0	0.15	4	50.0	0	37	;
	74450	74509	1300	0.221	203.6	0.15	4	45.0	0	41	;
	74509	74450	1300	0.221	203.6	0.15	4	45.0	0	41	;
	75996	76229	2600	0.853	58.6	0.15	4	50.0	0	37	;
	76229	75996	2600	0.853	58.6	0.15	4	50.0	0	37	;
	74918	74970	2600	0.437	114.4	0.15	4	50.0	0	37	;
	74970	74918	2600	0.437	114.4	0.15	4	50.0	0	37	;
	74723	74756	2600	0.09	555.6	0.15	4	50.0	0	37	;
	74756	74723	2600	0.09	555.6	0.15	4	50.0	0	37	;
	74756	74918	2600	0.537	93.1	0.15	4	50.0	0	37	;
	74918	74756	2600	0.537	93.1	0.15	4	50.0	0	37	;
	74055	74756	1000	2.507	16.0	0.15	4	40.0	0	67	;
	74756	74055	1000	2.507	16.0	0.15	4	40.0	0	67	;
	75150	75156	900	0.48	62.5	0.15	4	30.0	0	68	;
	75156	75150	900	0.48	62.5	0.15	4	30.0	0	68	;
	74918	75073	2200	0.475	105.3	0.15	4	50.0	0	64	;
	75073	74918	2200	0.475	105.3	0.15	4	50.0	0	64	;
	74984	75073	1000	0.75	53.3	0.15	4	40.0	0	67	;
	75073	74984	1000	0.75	53.3	0.15	4	40.0	0	67	;
	75627	75766	900	1.086	27.6	0.15	4	30.0	0	68	;
	75766	75627	900	1.086	27.6	0.15	4	30.0	0	68	;
	73962	74232	1300	0.711	63.3	0.15	4	45.0	0	41	;
	74232	73962	1300	0.711	63.3	0.15	4	45.0	0	41	;
	75766	75880	900	0.903	33.2	0.15	4	30.0	0	68	;
	75880	75766	900	0.903	33.2	0.15	4	30.0	0	68	;
	75990	76158	2200	0.78	64.1	0.15	4	50.0	0	64	;
	76158	75990	2200	0.78	64.1	0.15	4	50.0	0	64	;
	75990	76243	1000	1.14	35.1	0.15	4	40.0	0	67	;
	76243	75990	1000	1.14	35.1	0.15	4	40.0	0	67	;
	74232	74450	1300	0.692	65.0	0.15	4	45.0	0	41	;
	74450	74232	1300	0.692	65.0	0.15	4	45.0	0	41	;
	74861	74984	1000	0.941	42.5	0.15	4	40.0	0	67	;
	74984	74861	1000	0.941	42.5	0.15	4	40.0	0	67	;
	75627	75634	2000	0.643	62.2	0.15	4	40.0	0	65	;
	75634	75627	2000	0.643	62.2	0.15	4	40.0	0	65	;
	75634	75988	3889	1.252	63.9	0.15	4	80.0	0	13	;
	75988	75634	3889	1.252	63.9	0.15	4	80.0	0	13	;
	75579	75634	2200	0.959	52.1	0.15	4	50.0	0	64	;
	75634	75579	2200	0.959	52.1	0.15	4	50.0	0	64	;
	75131	75150	900	0.648	46.3	0.15	4	30.0	0	68	;
	75150	75131	900	0.648	46.3	0.15	4	30.0	0	68	;
	75988	76138	3889	0.548	146.0	0.15	4	80.0	0	13	;
	76138	75988	3889	0.548	146.0	0.15	4	80.0	0	13	;
	75064	75131	900	1.169	25.7	0.15	4	30.0	0	68	;
	75131	75064	900	1.169	25.7	0.15	4	30.0	0	68	;
	73972	74055	1000	0.71	56.3	0.15	4	40.0	0	67	;
	74055	73972	1000	0.71	56.3	0.15	4	40.0	0	67	;
	74055	74232	900	1.392	21.6	0.15	4	30.0	0	68	;
	74232	74055	900	1.392	21.6	0.15	4	30.0	0	68	;
	78750	78903	900	0.572	52.4	0.15	4	30.0	0	68	;
	78903	78750	900	0.572	52.4	0.15	4	30.0	0	68	;
	76124	76156	1000	0.422	94.8	0.15	4	40.0	0	49	;
	76156	76124	1000	0.422	94.8	0.15	4	40.0	0	49	;
	78906	78969	750	0.307	130.3	0.15	4	40.0	0	67	;
	78969	78906	750	0.307	130.3	0.15	4	40.0	0	67	;
	76103	76108	3300	1.017	49.2	0.15	4	50.0	0	44	;
	76108	76103	3300	1.017	49.2	0.15	4	50.0	0	44	;
	77142	77295	2000	1.224	32.7	0.15	4	40.0	0	65	;
	77295	77142	2000	1.224	32.7	0.15	4	40.0	0	65	;
	77142	77481	2000	1.088	41.4	0.15	4	45.0	0	46	;
	77481	77142	2000	1.088	41.4	0.15	4	45.0	0	46	;
	76938	77142	4200	0.825	84.8	0.15	4	70.0	0	32	;
	77142	76938	4200	0.825	84.8	0.15	4	70.0	0	32	;
	77481	77873	2000	1.351	33.3	0.15	4	45.0	0	46	;
	77873	77481	2000	1.351	33.3	0.15	4	45.0	0	46	;
	78528	78618	2000	0.212	212.3	0.15	4	45.0	0	46	;
	78618	78528	2000	0.212	212.3	0.15	4	45.0	0	46	;
	76350	76409	800	0.692	43.4	0.15	4	30.0	0	75	;
	76409	76350	800	0.692	43.4	0.15	4	30.0	0	75	;
	76300	76350	4200	0.348	172.4	0.15	4	60.0	0	33	;
	76350	76300	4200	0.348	172.4	0.15	4	60.0	0	33	;
	79079	79203	900	0.985	30.5	0.15	4	30.0	0	68	;
	79203	79079	900	0.985	30.5	0.15	4	30.0	0	68	;
	76350	76566	4200	0.775	77.4	0.15	4	60.0	0	33	;
	76566	76350	4200	0.775	77.4	0.15	4	60.0	0	33	;
	76546	76566	2000	0.119	378.2	0.15	4	45.0	0	46	;
	76566	76546	2000	0.119	378.2	0.15	4	45.0	0	46	;
	76566	76787	2000	1.113	40.4	0.15	4	45.0	0	46	;
	76787	76566	2000	1.113	40.4	0.15	4	45.0	0	46	;
	76566	76712	4200	0.574	122.0	0.15	4	70.0	0	32	;
	76712	76566	4200	0.574	122.0	0.15	4	70.0	0	32	;
	76462	76801	2000	1.376	32.7	0.15	4	45.0	0	46	;
	76801	76462	2000	1.376	32.7	0.15	4	45.0	0	46	;
	76462	76496	4200	0.275	254.5	0.15	4	70.0	0	32	;
	76496	76462	4200	0.275	254.5	0.15	4	70.0	0	32	;
	76929	76995	5500	0.212	283.0	0.15	4	60.0	0	30	;
	76995	76929	5500	0.212	283.0	0.15	4	60.0	0	30	;
	76924	76929	2154	0.379	184.7	0.15	4	70.0	0	35	;
	76929	76924	2154	0.379	184.7	0.15	4	70.0	0	35	;
	76712	76929	4200	0.829	84.4	0.15	4	70.0	0	32	;
	76929	76712	4200	0.829	84.4	0.15	4	70.0	0	32	;
	76541	76546	1000	0.661	60.5	0.15	4	40.0	0	67	;
	76546	76541	1000	0.661	60.5	0.15	4	40.0	0	67	;
	77295	77434	900	0.814	36.9	0.15	4	30.0	0	68	;
	77434	77295	900	0.814	36.9	0.15	4	30.0	0	68	;
	76995	77047	5500	0.247	242.9	0.15	4	60.0	0	30	;
	77047	76995	5500	0.247	242.9	0.15	4	60.0	0	30	;
	77614	77910	4200	0.982	71.3	0.15	4	70.0	0	32	;
	77910	77614	4200	0.982	71.3	0.15	4	70.0	0	32	;
	77910	77930	2000	1.138	39.5	0.15	4	45.0	0	46	;
	77930	77910	2000	1.138	39.5	0.15	4	45.0	0	46	;
	76329	76550	2600	0.879	56.9	0.15	4	50.0	0	37	;
	76550	76329	2600	0.879	56.9	0.15	4	50.0	0	37	;
	78105	78246	5500	0.417	143.9	0.15	4	60.0	0	30	;
	78246	78105	5500	0.417	143.9	0.15	4	60.0	0	30	;
	78049	78246	2000	0.874	51.5	0.15	4	45.0	0	46	;
	78246	78049	2000	0.874	51.5	0.15	4	45.0	0	46	;
	78246	78249	5500	0.766	78.3	0.15	4	60.0	0	30	;
	78249	78246	5500	0.766	78.3	0.15	4	60.0	0	30	;
	76260	76579	2200	1.43	35.0	0.15	4	50.0	0	64	;
	76579	76260	2200	1.43	35.0	0.15	4	50.0	0	64	;
	76229	76300	4200	0.745	80.5	0.15	4	60.0	0	33	;
	76300	76229	4200	0.745	80.5	0.15	4	60.0	0	33	;
	76229	76320	2000	0.774	58.1	0.15	4	45.0	0	46	;
	76320	76229	2000	0.774	58.1	0.15	4	45.0	0	46	;
	76617	76693	900	0.339	88.5	0.15	4	30.0	0	68	;
	76693	76617	900	0.339	88.5	0.15	4	30.0	0	68	;
	76867	76872	5500	0.377	159.2	0.15	4	60.0	0	30	;
	76872	76867	5500	0.377	159.2	0.15	4	60.0	0	30	;
	76673	76787	1000	0.45	88.9	0.15	4	40.0	0	67	;
	76787	76673	1000	0.45	88.9	0.15	4	40.0	0	67	;
	77047	77295	5500	0.89	67.4	0.15	4	60.0	0	30	;
	77295	77047	5500	0.89	67.4	0.15	4	60.0	0	30	;
	78692	78856	2000	0.825	54.5	0.15	4	45.0	0	46	;
	78856	78692	2000	0.825	54.5	0.15	4	45.0	0	46	;
	76732	76811	2200	0.643	77.8	0.15	4	50.0	0	64	;
	76811	76732	2200	0.643	77.8	0.15	4	50.0	0	64	;
	76712	76732	2200	0.646	77.4	0.15	4	50.0	0	64	;
	76732	76712	2200	0.646	77.4	0.15	4	50.0	0	64	;
	78392	78624	2600	0.965	51.8	0.15	4	50.0	0	37	;
	78624	78392	2600	0.965	51.8	0.15	4	50.0	0	37	;
	76693	76694	900	0.348	86.2	0.15	4	30.0	0	68	;
	76694	76693	900	0.348	86.2	0.15	4	30.0	0	68	;
	76804	76814	5500	0.03	2000.0	0.15	4	60.0	0	30	;
	76814	76804	5500	0.03	2000.0	0.15	4	60.0	0	30	;
	76811	76824	800	0.88	34.1	0.15	4	30.0	0	75	;
	76824	76811	800	0.88	34.1	0.15	4	30.0	0	75	;
	76787	76872	2000	0.566	79.5	0.15	4	45.0	0	46	;
	76872	76787	2000	0.566	79.5	0.15	4	45.0	0	46	;
	76824	76885	800	0.716	41.9	0.15	4	30.0	0	75	;
	76885	76824	800	0.716	41.9	0.15	4	30.0	0	75	;
	76604	76824	800	0.925	32.4	0.15	4	30.0	0	75	;
	76824	76604	800	0.925	32.4	0.15	4	30.0	0	75	;
	76766	76840	2200	0.55	90.9	0.15	4	50.0	0	64	;
	76840	76766	2200	0.55	90.9	0.15	4	50.0	0	64	;
	76812	76814	5500	0.143	419.6	0.15	4	60.0	0	30	;
	76814	76812	5500	0.143	419.6	0.15	4	60.0	0	30	;
	76705	76809	900	1.263	23.8	0.15	4	30.0	0	68	;
	76809	76705	900	1.263	23.8	0.15	4	30.0	0	68	;
	76801	76921	2000	0.44	102.3	0.15	4	45.0	0	46	;
	76921	76801	2000	0.44	102.3	0.15	4	45.0	0	46	;
	76840	76946	2200	0.38	131.6	0.15	4	50.0	0	64	;
	76946	76840	2200	0.38	131.6	0.15	4	50.0	0	64	;
	76921	76954	900	0.599	50.1	0.15	4	30.0	0	68	;
	76954	76921	900	0.599	50.1	0.15	4	30.0	0	68	;
	76946	76954	900	0.429	69.9	0.15	4	30.0	0	68	;
	76954	76946	900	0.429	69.9	0.15	4	30.0	0	68	;
	76946	77022	900	0.424	70.8	0.15	4	30.0	0	68	;
	77022	76946	900	0.424	70.8	0.15	4	30.0	0	68	;
	76954	77079	2200	0.567	88.2	0.15	4	50.0	0	64	;
	77079	76954	2200	0.567	88.2	0.15	4	50.0	0	64	;
	77022	77110	900	1.129	26.6	0.15	4	30.0	0	68	;
	77110	77022	900	1.129	26.6	0.15	4	30.0	0	68	;
	77022	77104	900	0.467	64.2	0.15	4	30.0	0	68	;
	77104	77022	900	0.467	64.2	0.15	4	30.0	0	68	;
	78038	78049	2000	0.076	592.1	0.15	4	45.0	0	46	;
	78049	78038	2000	0.076	592.1	0.15	4	45.0	0	46	;
	78656	78673	2600	0.216	231.5	0.15	4	50.0	0	37	;
	78673	78656	2600	0.216	231.5	0.15	4	50.0	0	37	;
	76814	77056	2000	0.948	47.5	0.15	4	45.0	0	46	;
	77056	76814	2000	0.948	47.5	0.15	4	45.0	0	46	;
	76108	76138	3300	1.546	32.3	0.15	4	50.0	0	44	;
	76138	76108	3300	1.546	32.3	0.15	4	50.0	0	44	;
	77036	77039	900	0.883	34.0	0.15	4	30.0	0	68	;
	77039	77036	900	0.883	34.0	0.15	4	30.0	0	68	;
	76949	77039	900	0.857	35.0	0.15	4	30.0	0	68	;
	77039	76949	900	0.857	35.0	0.15	4	30.0	0	68	;
	76108	76453	2000	1.141	39.4	0.15	4	45.0	0	46	;
	76453	76108	2000	1.141	39.4	0.15	4	45.0	0	46	;
	77056	77108	900	0.85	35.3	0.15	4	30.0	0	68	;
	77108	77056	900	0.85	35.3	0.15	4	30.0	0	68	;
	76238	76496	4950	0.963	83.1	0.15	4	80.0	0	13	;
	76496	76238	4950	0.963	83.1	0.15	4	80.0	0	13	;
	77110	77111	1000	0.223	179.4	0.15	4	40.0	0	49	;
	77111	77110	1000	0.223	179.4	0.15	4	40.0	0	49	;
	76898	76926	2000	0.825	54.5	0.15	4	45.0	0	46	;
	76926	76898	2000	0.825	54.5	0.15	4	45.0	0	46	;
	77110	77223	900	0.599	50.1	0.15	4	30.0	0	68	;
	77223	77110	900	0.599	50.1	0.15	4	30.0	0	68	;
	77787	77820	2600	0.226	221.2	0.15	4	50.0	0	37	;
	77820	77787	2600	0.226	221.2	0.15	4	50.0	0	37	;
	77174	77406	4200	0.79	75.9	0.15	4	60.0	0	33	;
	77406	77174	4200	0.79	75.9	0.15	4	60.0	0	33	;
	77104	77227	2200	0.576	86.8	0.15	4	50.0	0	64	;
	77227	77104	2200	0.576	86.8	0.15	4	50.0	0	64	;
	78583	78679	4200	0.184	326.1	0.15	4	60.0	0	33	;
	78679	78583	4200	0.184	326.1	0.15	4	60.0	0	33	;
	78723	78792	2600	0.565	88.5	0.15	4	50.0	0	37	;
	78792	78723	2600	0.565	88.5	0.15	4	50.0	0	37	;
	77110	77229	1000	0.433	92.4	0.15	4	40.0	0	49	;
	77229	77110	1000	0.433	92.4	0.15	4	40.0	0	49	;
	77223	77229	800	0.493	60.9	0.15	4	30.0	0	50	;
	77229	77223	800	0.493	60.9	0.15	4	30.0	0	50	;
	77223	77227	800	0.524	57.3	0.15	4	30.0	0	50	;
	77227	77223	800	0.524	57.3	0.15	4	30.0	0	50	;
	77111	77231	2000	0.418	107.7	0.15	4	45.0	0	46	;
	77231	77111	2200	0.418	119.6	0.15	4	50.0	0	64	;
	77231	77450	1600	0.692	57.8	0.15	4	40.0	0	73	;
	77450	77231	1600	0.692	57.8	0.15	4	40.0	0	73	;
	76104	76112	2200	0.032	1718.8	0.15	4	55.0	0	45	;
	76112	76104	2200	0.032	1718.8	0.15	4	55.0	0	45	;
	76112	76244	2000	0.744	60.5	0.15	4	45.0	0	46	;
	76244	76112	2000	0.744	60.5	0.15	4	45.0	0	46	;
	77227	77485	2200	0.968	51.7	0.15	4	50.0	0	64	;
	77485	77227	2200	0.968	51.7	0.15	4	50.0	0	64	;
	77820	77872	3300	0.606	132.0	0.15	4	80.0	0	17	;
	77872	77820	3300	0.606	132.0	0.15	4	80.0	0	17	;
	77108	77250	2000	0.582	77.3	0.15	4	45.0	0	46	;
	77250	77108	2000	0.582	77.3	0.15	4	45.0	0	46	;
	77250	77469	2000	0.754	59.7	0.15	4	45.0	0	46	;
	77469	77250	2000	0.754	59.7	0.15	4	45.0	0	46	;
	77311	77398	1000	0.369	108.4	0.15	4	40.0	0	49	;
	77398	77311	1000	0.369	108.4	0.15	4	40.0	0	49	;
	77250	77303	2000	0.442	90.5	0.15	4	40.0	0	65	;
	77303	77250	2000	0.442	90.5	0.15	4	40.0	0	65	;
	77303	77489	2000	0.62	64.5	0.15	4	40.0	0	65	;
	77489	77303	2000	0.62	64.5	0.15	4	40.0	0	65	;
	77317	77531	2000	0.75	53.3	0.15	4	40.0	0	65	;
	77531	77317	0	0.75	0.0	0.15	4	0.0	0	0	;
	77342	77559	0	0.743	0.0	0.15	4	0.0	0	0	;
	77559	77342	2000	0.743	53.8	0.15	4	40.0	0	65	;
	77398	77639	1000	0.804	49.8	0.15	4	40.0	0	49	;
	77639	77398	1000	0.804	49.8	0.15	4	40.0	0	49	;
	77401	77679	900	0.882	34.0	0.15	4	30.0	0	68	;
	77679	77401	900	0.882	34.0	0.15	4	30.0	0	68	;
	77401	77448	2000	0.769	58.5	0.15	4	45.0	0	46	;
	77448	77401	2000	0.769	58.5	0.15	4	45.0	0	46	;
	76862	76867	5500	0.125	480.0	0.15	4	60.0	0	30	;
	76867	76862	5500	0.125	480.0	0.15	4	60.0	0	30	;
	77229	77433	1000	0.668	59.9	0.15	4	40.0	0	49	;
	77433	77229	1000	0.668	59.9	0.15	4	40.0	0	49	;
	77433	77485	900	0.48	62.5	0.15	4	30.0	0	68	;
	77485	77433	900	0.48	62.5	0.15	4	30.0	0	68	;
	77433	77450	1000	0.237	168.8	0.15	4	40.0	0	49	;
	77450	77433	1000	0.237	168.8	0.15	4	40.0	0	49	;
	77469	77489	900	0.597	50.3	0.15	4	30.0	0	68	;
	77489	77469	900	0.597	50.3	0.15	4	30.0	0	68	;
	77485	77577	900	0.396	75.8	0.15	4	30.0	0	68	;
	77577	77485	900	0.396	75.8	0.15	4	30.0	0	68	;
	77511	77692	1000	0.86	46.5	0.15	4	40.0	0	49	;
	77692	77511	1000	0.86	46.5	0.15	4	40.0	0	49	;
	77511	77700	2000	1.132	39.8	0.15	4	45.0	0	46	;
	77700	77511	2000	1.132	39.8	0.15	4	45.0	0	46	;
	77520	77614	5500	0.382	157.1	0.15	4	60.0	0	30	;
	77614	77520	5500	0.382	157.1	0.15	4	60.0	0	30	;
	77604	77688	900	1.054	28.5	0.15	4	30.0	0	68	;
	77688	77604	900	1.054	28.5	0.15	4	30.0	0	68	;
	77559	77639	900	0.949	31.6	0.15	4	30.0	0	68	;
	77639	77559	900	0.949	31.6	0.15	4	30.0	0	68	;
	77678	77931	900	0.859	34.9	0.15	4	30.0	0	68	;
	77931	77678	900	0.859	34.9	0.15	4	30.0	0	68	;
	77688	77883	1000	0.692	57.8	0.15	4	40.0	0	49	;
	77883	77688	1000	0.692	57.8	0.15	4	40.0	0	49	;
	77669	77742	2000	0.286	157.3	0.15	4	45.0	0	46	;
	77742	77669	2000	0.286	157.3	0.15	4	45.0	0	46	;
	77692	77877	2000	0.803	56.0	0.15	4	45.0	0	46	;
	77877	77692	2000	0.803	56.0	0.15	4	45.0	0	46	;
	76851	76862	5500	0.444	135.1	0.15	4	60.0	0	30	;
	76862	76851	5500	0.444	135.1	0.15	4	60.0	0	30	;
	77693	77700	2000	0.473	95.1	0.15	4	45.0	0	46	;
	77700	77693	2000	0.473	95.1	0.15	4	45.0	0	46	;
	77700	77887	2000	0.633	71.1	0.15	4	45.0	0	46	;
	77887	77700	2000	0.633	71.1	0.15	4	45.0	0	46	;
	77742	77870	2000	0.424	106.1	0.15	4	45.0	0	46	;
	77870	77742	2000	0.424	106.1	0.15	4	45.0	0	46	;
	77758	77887	2000	0.472	95.3	0.15	4	45.0	0	46	;
	77887	77758	800	0.472	63.6	0.15	4	30.0	0	75	;
	77800	77850	900	0.679	44.2	0.15	4	30.0	0	68	;
	77850	77800	900	0.679	44.2	0.15	4	30.0	0	68	;
	77800	78187	900	1.329	22.6	0.15	4	30.0	0	68	;
	78187	77800	900	1.329	22.6	0.15	4	30.0	0	68	;
	77818	77871	4200	0.424	165.1	0.15	4	70.0	0	32	;
	77871	77818	4200	0.424	165.1	0.15	4	70.0	0	32	;
	77883	77931	2000	0.547	82.3	0.15	4	45.0	0	46	;
	77931	77883	2000	0.547	82.3	0.15	4	45.0	0	46	;
	77870	77871	2200	0.685	73.0	0.15	4	50.0	0	64	;
	77871	77870	2200	0.685	73.0	0.15	4	50.0	0	64	;
	77870	78070	4200	0.645	108.5	0.15	4	70.0	0	32	;
	78070	77870	4200	0.645	108.5	0.15	4	70.0	0	32	;
	77871	77989	900	0.372	80.6	0.15	4	30.0	0	68	;
	77989	77871	900	0.372	80.6	0.15	4	30.0	0	68	;
	77758	77850	900	0.49	61.2	0.15	4	30.0	0	68	;
	77850	77758	900	0.49	61.2	0.15	4	30.0	0	68	;
	77850	77998	800	0.52	57.7	0.15	4	30.0	0	75	;
	77998	77850	800	0.52	57.7	0.15	4	30.0	0	75	;
	77818	77877	2200	0.368	135.9	0.15	4	50.0	0	64	;
	77877	77818	2200	0.368	135.9	0.15	4	50.0	0	64	;
	77877	77985	2000	0.594	75.8	0.15	4	45.0	0	46	;
	77985	77877	2000	0.594	75.8	0.15	4	45.0	0	46	;
	77877	77987	2200	0.348	143.7	0.15	4	50.0	0	64	;
	77987	77877	2200	0.348	143.7	0.15	4	50.0	0	64	;
	76838	76851	5500	0.421	142.5	0.15	4	60.0	0	30	;
	76851	76838	5500	0.421	142.5	0.15	4	60.0	0	30	;
	77933	78038	2000	0.421	95.0	0.15	4	40.0	0	65	;
	78038	77933	2000	0.421	95.0	0.15	4	40.0	0	65	;
	77887	78066	2000	0.527	85.4	0.15	4	45.0	0	46	;
	78066	77887	2000	0.527	85.4	0.15	4	45.0	0	46	;
	77989	78070	0	0.594	0.0	0.15	4	0.0	0	0	;
	78070	77989	2000	0.594	75.8	0.15	4	45.0	0	46	;
	77987	78144	2200	0.555	90.1	0.15	4	50.0	0	64	;
	78144	77987	2200	0.555	90.1	0.15	4	50.0	0	64	;
	77987	78242	900	0.82	36.6	0.15	4	30.0	0	68	;
	78242	77987	900	0.82	36.6	0.15	4	30.0	0	68	;
	78010	78150	2000	0.639	70.4	0.15	4	45.0	0	46	;
	78150	78010	0	0.639	0.0	0.15	4	0.0	0	0	;
	77998	78289	800	0.837	35.8	0.15	4	30.0	0	75	;
	78289	77998	800	0.837	35.8	0.15	4	30.0	0	75	;
	78070	78212	0	0.833	0.0	0.15	4	0.0	0	0	;
	78212	78070	2000	0.833	54.0	0.15	4	45.0	0	46	;
	77998	78066	800	0.3	100.0	0.15	4	30.0	0	75	;
	78066	77998	800	0.3	100.0	0.15	4	30.0	0	75	;
	78066	78336	2000	0.753	59.8	0.15	4	45.0	0	46	;
	78336	78066	2000	0.753	59.8	0.15	4	45.0	0	46	;
	78150	78300	2000	0.463	97.2	0.15	4	45.0	0	46	;
	78300	78150	2000	0.463	97.2	0.15	4	45.0	0	46	;
	78144	78217	900	0.524	57.3	0.15	4	30.0	0	68	;
	78217	78144	900	0.524	57.3	0.15	4	30.0	0	68	;
	78144	78278	2200	0.52	96.2	0.15	4	50.0	0	64	;
	78278	78144	2200	0.52	96.2	0.15	4	50.0	0	64	;
	78150	78212	2000	0.795	56.6	0.15	4	45.0	0	46	;
	78212	78150	0	0.795	0.0	0.15	4	0.0	0	0	;
	78231	78478	2000	0.921	48.9	0.15	4	45.0	0	46	;
	78478	78231	2000	0.921	48.9	0.15	4	45.0	0	46	;
	78231	78392	2000	0.969	46.4	0.15	4	45.0	0	46	;
	78392	78231	2000	0.969	46.4	0.15	4	45.0	0	46	;
	77850	78187	900	1.105	27.1	0.15	4	30.0	0	68	;
	78187	77850	900	1.105	27.1	0.15	4	30.0	0	68	;
	78217	78278	900	0.227	132.2	0.15	4	30.0	0	68	;
	78278	78217	900	0.227	132.2	0.15	4	30.0	0	68	;
	78217	78289	900	0.514	58.4	0.15	4	30.0	0	68	;
	78289	78217	900	0.514	58.4	0.15	4	30.0	0	68	;
	78010	78242	2000	0.606	66.0	0.15	4	40.0	0	65	;
	78242	78010	2000	0.606	66.0	0.15	4	40.0	0	65	;
	78242	78300	900	0.587	51.1	0.15	4	30.0	0	68	;
	78300	78242	900	0.587	51.1	0.15	4	30.0	0	68	;
	78242	78487	2000	0.897	44.6	0.15	4	40.0	0	65	;
	78487	78242	2000	0.897	44.6	0.15	4	40.0	0	65	;
	77872	78207	2000	0.957	47.0	0.15	4	45.0	0	46	;
	78207	77872	2000	0.957	47.0	0.15	4	45.0	0	46	;
	78278	78425	2000	0.707	63.6	0.15	4	45.0	0	46	;
	78425	78278	2000	0.707	63.6	0.15	4	45.0	0	46	;
	78278	78510	2000	1.18	33.9	0.15	4	40.0	0	65	;
	78510	78278	2000	1.18	33.9	0.15	4	40.0	0	65	;
	78300	78461	2000	0.584	77.1	0.15	4	45.0	0	46	;
	78461	78300	2000	0.584	77.1	0.15	4	45.0	0	46	;
	78300	78478	900	1.343	22.3	0.15	4	30.0	0	68	;
	78478	78300	900	1.343	22.3	0.15	4	30.0	0	68	;
	78289	78425	800	0.467	64.2	0.15	4	30.0	0	75	;
	78425	78289	800	0.467	64.2	0.15	4	30.0	0	75	;
	78289	78336	900	0.478	62.8	0.15	4	30.0	0	68	;
	78336	78289	900	0.478	62.8	0.15	4	30.0	0	68	;
	78336	78500	2000	0.663	67.9	0.15	4	45.0	0	46	;
	78500	78336	2000	0.663	67.9	0.15	4	45.0	0	46	;
	78425	78500	2000	0.389	115.7	0.15	4	45.0	0	46	;
	78500	78425	2000	0.389	115.7	0.15	4	45.0	0	46	;
	78425	78579	800	0.533	56.3	0.15	4	30.0	0	75	;
	78579	78425	800	0.533	56.3	0.15	4	30.0	0	75	;
	78461	78634	2000	0.536	84.0	0.15	4	45.0	0	46	;
	78634	78461	2000	0.536	84.0	0.15	4	45.0	0	46	;
	78487	78641	2000	0.44	90.9	0.15	4	40.0	0	65	;
	78641	78487	2000	0.44	90.9	0.15	4	40.0	0	65	;
	78461	78487	2000	0.412	97.1	0.15	4	40.0	0	65	;
	78487	78461	2000	0.412	97.1	0.15	4	40.0	0	65	;
	78487	78510	2000	0.462	86.6	0.15	4	40.0	0	65	;
	78510	78487	2000	0.462	86.6	0.15	4	40.0	0	65	;
	78510	78673	2000	0.432	104.2	0.15	4	45.0	0	46	;
	78673	78510	2000	0.432	104.2	0.15	4	45.0	0	46	;
	78500	78583	2000	0.84	53.6	0.15	4	45.0	0	46	;
	78583	78500	2000	0.84	53.6	0.15	4	45.0	0	46	;
	78500	78579	2000	0.384	117.2	0.15	4	45.0	0	46	;
	78579	78500	2000	0.384	117.2	0.15	4	45.0	0	46	;
	78579	78656	2000	0.957	47.0	0.15	4	45.0	0	46	;
	78656	78579	2000	0.957	47.0	0.15	4	45.0	0	46	;
	78579	78792	900	0.504	59.5	0.15	4	30.0	0	68	;
	78792	78579	900	0.504	59.5	0.15	4	30.0	0	68	;
	76687	76724	5500	0.191	314.1	0.15	4	60.0	0	30	;
	76724	76687	5500	0.191	314.1	0.15	4	60.0	0	30	;
	76573	76687	5500	0.558	107.5	0.15	4	60.0	0	30	;
	76687	76573	5500	0.558	107.5	0.15	4	60.0	0	30	;
	76555	76573	5500	0.172	348.8	0.15	4	60.0	0	30	;
	76573	76555	5500	0.172	348.8	0.15	4	60.0	0	30	;
	78624	78692	2000	0.28	160.7	0.15	4	45.0	0	46	;
	78692	78624	2000	0.28	160.7	0.15	4	45.0	0	46	;
	78656	78726	2600	0.349	143.3	0.15	4	50.0	0	37	;
	78726	78656	2600	0.349	143.3	0.15	4	50.0	0	37	;
	76531	76555	5500	0.197	304.6	0.15	4	60.0	0	30	;
	76555	76531	5500	0.197	304.6	0.15	4	60.0	0	30	;
	78974	79079	900	0.527	56.9	0.15	4	30.0	0	68	;
	79079	78974	900	0.527	56.9	0.15	4	30.0	0	68	;
	78673	78683	2600	0.352	142.0	0.15	4	50.0	0	37	;
	78683	78673	2600	0.352	142.0	0.15	4	50.0	0	37	;
	79049	79126	900	0.627	47.8	0.15	4	30.0	0	68	;
	79126	79049	900	0.627	47.8	0.15	4	30.0	0	68	;
	79126	79701	900	1.875	16.0	0.15	4	30.0	0	68	;
	79701	79126	900	1.875	16.0	0.15	4	30.0	0	68	;
	79169	79203	800	0.119	252.1	0.15	4	30.0	0	75	;
	79203	79169	800	0.119	252.1	0.15	4	30.0	0	75	;
	79320	79358	900	1.155	26.0	0.15	4	30.0	0	68	;
	79358	79320	900	1.155	26.0	0.15	4	30.0	0	68	;
	79574	79617	2000	0.519	86.7	0.15	4	45.0	0	46	;
	79617	79574	2000	0.519	86.7	0.15	4	45.0	0	46	;
	79942	79968	2200	0.468	106.8	0.15	4	50.0	0	64	;
	79968	79942	2200	0.468	106.8	0.15	4	50.0	0	64	;
	79617	79750	2200	0.662	75.5	0.15	4	50.0	0	64	;
	79750	79617	2200	0.662	75.5	0.15	4	50.0	0	64	;
	79649	79750	2200	0.822	60.8	0.15	4	50.0	0	64	;
	79750	79649	2200	0.822	60.8	0.15	4	50.0	0	64	;
	78726	78792	2600	0.794	63.0	0.15	4	50.0	0	37	;
	78792	78726	2600	0.794	63.0	0.15	4	50.0	0	37	;
	76220	76238	4950	0.08	1000.0	0.15	4	80.0	0	13	;
	76238	76220	3300	0.08	1000.0	0.15	4	80.0	0	17	;
	76926	76935	2000	0.203	221.7	0.15	4	45.0	0	46	;
	76935	76926	2000	0.203	221.7	0.15	4	45.0	0	46	;
	76935	76950	2000	0.147	306.1	0.15	4	45.0	0	46	;
	76950	76935	2000	0.147	306.1	0.15	4	45.0	0	46	;
	76103	76104	2200	0.061	901.6	0.15	4	55.0	0	45	;
	76104	76103	2200	0.061	901.6	0.15	4	55.0	0	45	;
	77815	77930	900	0.368	81.5	0.15	4	30.0	0	68	;
	77930	77815	900	0.368	81.5	0.15	4	30.0	0	68	;
	77076	77166	2000	0.449	100.2	0.15	4	45.0	0	46	;
	77166	77076	2000	0.449	100.2	0.15	4	45.0	0	46	;
	78618	78743	0	0.391	0.0	0.15	4	0.0	0	0	;
	78743	78618	2600	0.391	243.0	0.15	4	95.0	0	51	;
	76432	76531	3889	0.306	261.4	0.15	4	80.0	0	13	;
	76531	76432	3889	0.306	261.4	0.15	4	80.0	0	13	;
	75835	76076	3536	2.041	39.2	0.15	4	80.0	0	13	;
	76076	75835	3536	2.041	39.2	0.15	4	80.0	0	13	;
	78743	79033	1300	0.938	80.0	0.15	4	75.0	0	38	;
	79033	78743	1300	0.938	80.0	0.15	4	75.0	0	38	;
	77481	77520	900	1.148	26.1	0.15	4	30.0	0	68	;
	77520	77481	900	1.148	26.1	0.15	4	30.0	0	68	;
	76541	76732	1000	0.731	54.7	0.15	4	40.0	0	67	;
	76732	76541	1000	0.731	54.7	0.15	4	40.0	0	67	;
	76300	76673	1000	1.337	29.9	0.15	4	40.0	0	67	;
	76673	76300	1000	1.337	29.9	0.15	4	40.0	0	67	;
	77434	77520	2000	0.782	57.5	0.15	4	45.0	0	46	;
	77520	77434	2000	0.782	57.5	0.15	4	45.0	0	46	;
	78205	78392	2800	0.902	77.6	0.15	4	70.0	0	35	;
	78392	78205	2800	0.902	77.6	0.15	4	70.0	0	35	;
	77434	77448	2000	0.255	176.5	0.15	4	45.0	0	46	;
	77448	77434	2000	0.255	176.5	0.15	4	45.0	0	46	;
	77182	77448	2200	1.52	32.9	0.15	4	50.0	0	64	;
	77448	77182	2200	1.52	32.9	0.15	4	50.0	0	64	;
	77182	77311	2000	0.418	107.7	0.15	4	45.0	0	46	;
	77311	77182	2000	0.418	107.7	0.15	4	45.0	0	46	;
	76949	76950	1000	0.68	58.8	0.15	4	40.0	0	49	;
	76950	76949	1000	0.68	58.8	0.15	4	40.0	0	49	;
	77930	78038	1000	0.336	119.0	0.15	4	40.0	0	49	;
	78038	77930	1000	0.336	119.0	0.15	4	40.0	0	49	;
	76554	76600	2200	1.059	47.2	0.15	4	50.0	0	64	;
	76600	76554	2200	1.059	47.2	0.15	4	50.0	0	64	;
	79460	79617	2000	1.028	43.8	0.15	4	45.0	0	46	;
	79617	79460	2000	1.028	43.8	0.15	4	45.0	0	46	;
	78233	78390	900	0.583	51.5	0.15	4	30.0	0	68	;
	78390	78233	900	0.583	51.5	0.15	4	30.0	0	68	;
	79849	79910	900	0.358	83.8	0.15	4	30.0	0	68	;
	79910	79849	900	0.358	83.8	0.15	4	30.0	0	68	;
	79910	80004	900	0.411	73.0	0.15	4	30.0	0	68	;
	80004	79910	900	0.411	73.0	0.15	4	30.0	0	68	;
	79812	114489	1600	0.156	256.4	0.15	4	40.0	0	85	;
	114489	79812	1600	0.156	256.4	0.15	4	40.0	0	85	;
	80317	80332	1000	0.133	375.9	0.15	4	50.0	0	48	;
	80332	80317	1000	0.133	375.9	0.15	4	50.0	0	48	;
	80283	80317	1000	0.195	256.4	0.15	4	50.0	0	48	;
	80317	80283	1000	0.195	256.4	0.15	4	50.0	0	48	;
	75835	75840	3536	0.659	121.4	0.15	4	80.0	0	13	;
	75840	75835	3536	0.659	121.4	0.15	4	80.0	0	13	;
	75835	75961	1000	0.59	67.8	0.15	4	40.0	0	67	;
	75961	75835	1000	0.59	67.8	0.15	4	40.0	0	67	;
	75659	76103	900	1.883	29.2	0.15	4	55.0	0	62	;
	76103	75659	900	1.883	29.2	0.15	4	55.0	0	62	;
	75631	75659	900	0.716	41.9	0.15	4	30.0	0	68	;
	75659	75631	900	0.716	41.9	0.15	4	30.0	0	68	;
	76142	76554	900	1.411	21.3	0.15	4	30.0	0	68	;
	76554	76142	900	1.411	21.3	0.15	4	30.0	0	68	;
	76448	76651	900	1.023	29.3	0.15	4	30.0	0	68	;
	76651	76448	900	1.023	29.3	0.15	4	30.0	0	68	;
	76448	76554	1600	0.856	46.7	0.15	4	40.0	0	73	;
	76554	76448	1600	0.856	46.7	0.15	4	40.0	0	73	;
	76655	76874	1000	1.638	24.4	0.15	4	40.0	0	49	;
	76874	76655	1000	1.638	24.4	0.15	4	40.0	0	49	;
	76142	76244	2200	1.391	35.9	0.15	4	50.0	0	64	;
	76244	76142	2200	1.391	35.9	0.15	4	50.0	0	64	;
	79460	79649	1000	0.591	67.7	0.15	4	40.0	0	49	;
	79649	79460	1000	0.591	67.7	0.15	4	40.0	0	49	;
	76112	76184	3300	0.326	245.4	0.15	4	80.0	0	17	;
	76184	76112	3300	0.326	245.4	0.15	4	80.0	0	17	;
	76314	76432	3889	0.346	231.2	0.15	4	80.0	0	13	;
	76432	76314	3889	0.346	231.2	0.15	4	80.0	0	13	;
	76704	76894	900	1.51	19.9	0.15	4	30.0	0	68	;
	76894	76704	900	1.51	19.9	0.15	4	30.0	0	68	;
	76894	76925	1000	0.188	212.8	0.15	4	40.0	0	67	;
	76925	76894	1000	0.188	212.8	0.15	4	40.0	0	67	;
	76795	76800	4500	0.018	7777.8	0.15	4	140.0	0	10	;
	76800	76795	4500	0.018	7777.8	0.15	4	140.0	0	10	;
	77907	78098	2200	0.584	85.6	0.15	4	50.0	0	64	;
	78098	77907	2200	0.584	85.6	0.15	4	50.0	0	64	;
	78098	78750	2200	1.948	25.7	0.15	4	50.0	0	64	;
	78750	78098	2200	1.948	25.7	0.15	4	50.0	0	64	;
	77428	77458	2200	0.316	158.2	0.15	4	50.0	0	64	;
	77458	77428	2200	0.316	158.2	0.15	4	50.0	0	64	;
	76925	77007	1000	0.533	75.0	0.15	4	40.0	0	67	;
	77007	76925	1000	0.533	75.0	0.15	4	40.0	0	67	;
	74997	75006	900	0.415	72.3	0.15	4	30.0	0	68	;
	75006	74997	900	0.415	72.3	0.15	4	30.0	0	68	;
	74997	75318	900	0.933	32.2	0.15	4	30.0	0	68	;
	75318	74997	900	0.933	32.2	0.15	4	30.0	0	68	;
	74915	74925	2750	0.127	1023.6	0.15	4	130.0	0	14	;
	74925	74915	2750	0.127	1023.6	0.15	4	130.0	0	14	;
	75279	75318	900	2.057	14.6	0.15	4	30.0	0	68	;
	75318	75279	900	2.057	14.6	0.15	4	30.0	0	68	;
	75920	75937	1300	0.076	592.1	0.15	4	45.0	0	41	;
	75937	75920	1300	0.076	592.1	0.15	4	45.0	0	41	;
	75937	75996	2600	0.26	192.3	0.15	4	50.0	0	37	;
	75996	75937	2600	0.26	192.3	0.15	4	50.0	0	37	;
	75109	75156	2200	0.127	393.7	0.15	4	50.0	0	64	;
	75156	75109	2200	0.127	393.7	0.15	4	50.0	0	64	;
	75155	75279	2200	0.312	160.3	0.15	4	50.0	0	64	;
	75279	75155	2200	0.312	160.3	0.15	4	50.0	0	64	;
	75073	75155	2200	0.189	264.6	0.15	4	50.0	0	64	;
	75155	75073	2200	0.189	264.6	0.15	4	50.0	0	64	;
	73760	73962	2600	0.58	86.2	0.15	4	50.0	0	37	;
	73962	73760	2600	0.58	86.2	0.15	4	50.0	0	37	;
	73935	73972	1000	0.435	92.0	0.15	4	40.0	0	67	;
	73972	73935	1000	0.435	92.0	0.15	4	40.0	0	67	;
	75279	75462	2200	0.449	111.4	0.15	4	50.0	0	64	;
	75462	75279	2200	0.449	111.4	0.15	4	50.0	0	64	;
	78903	78906	900	0.007	6428.6	0.15	4	45.0	0	41	;
	78906	78903	900	0.007	6428.6	0.15	4	45.0	0	41	;
	78621	78629	750	0.023	1739.1	0.15	4	40.0	0	67	;
	78629	78621	750	0.023	1739.1	0.15	4	40.0	0	67	;
	78549	78621	1650	0.218	229.4	0.15	4	50.0	0	64	;
	78621	78549	1650	0.218	229.4	0.15	4	50.0	0	64	;
	77873	78467	2000	1.789	25.2	0.15	4	45.0	0	46	;
	78467	77873	2000	1.789	25.2	0.15	4	45.0	0	46	;
	77873	77897	1800	0.312	160.3	0.15	4	50.0	0	37	;
	77897	77873	1800	0.312	160.3	0.15	4	50.0	0	37	;
	78528	78549	1650	0.156	320.5	0.15	4	50.0	0	64	;
	78549	78528	1650	0.156	320.5	0.15	4	50.0	0	64	;
	78467	78539	0	0.297	0.0	0.15	4	0.0	0	0	;
	78539	78467	1000	0.297	168.4	0.15	4	50.0	0	48	;
	78429	78528	1650	0.568	88.0	0.15	4	50.0	0	64	;