<NUMBER OF ZONES> 284
<TOTAL OD FLOW> 2264377.3
<END OF METADATA> 

Origin	1000000
	1000000 :	0.0;	1000001 :	0.0;	1000002 :	0.0;	1000003 :	0.0;	1000004 :	6.5;	1000005 :	0.0;	1000007 :	0.0;	1000008 :	0.0;	1000009 :	0.0;	1000010 :	0.0;
	1000011 :	0.0;	1000012 :	49.7;	1000013 :	0.0;	1000014 :	0.0;	1000015 :	7.1;	1000016 :	0.0;	1000017 :	0.0;	1000018 :	4.8;	1000019 :	0.0;	1000020 :	0.0;
	1000021 :	0.0;	1000022 :	0.0;	1000023 :	17.1;	1000024 :	0.0;	1000025 :	0.0;	1000026 :	0.0;	1000027 :	0.0;	1000028 :	32.2;	1000029 :	50.3;	1000030 :	0.0;
	1000031 :	1.1;	1000032 :	0.0;	1000033 :	0.0;	1000034 :	0.0;	1000035 :	0.0;	1000036 :	2.3;	1000037 :	0.0;	1000038 :	104.9;	1000039 :	0.0;	1000040 :	0.0;
	1000041 :	15.8;	1000042 :	0.0;	1000043 :	0.0;	1000044 :	0.0;	1000045 :	209.8;	1000046 :	0.0;	1000047 :	0.0;	1000048 :	2.6;	113707 :	3.4;	114425 :	0.0;
	114430 :	0.0;	114489 :	0.0;	114588 :	1.5;	2146236900 :	3.0;	2146237252 :	5.3;	2146237358 :	45.93333333333334;	2146237363 :	28.25333333333333;	2146237366 :	15.6;	2146237373 :	13.1;	2146237375 :	4.1;
	2146237805 :	0.6599999999999999;	2146237822 :	0.4;	2146237837 :	0.6433333333333333;	2146237900 :	85.89999999999999;	2146237901 :	0.635;	2146237902 :	0.48333333333333334;	2146237904 :	0.0;	2146237906 :	0.0;	2146237907 :	2.1333333333333333;	2146237908 :	149.66666666666666;
	2146237909 :	73.775;	2146237910 :	37.4;	2146237911 :	777.2;	2146237912 :	286.47499999999997;	2146237913 :	14.524999999999999;	2146237915 :	3.0;	2146237917 :	1.275;	2146237920 :	1.0233333333333334;	2146237921 :	0.54;	2146237928 :	1.75;
	2146237929 :	18.416666666666664;	2146237930 :	8.62;	2146237931 :	2.915;	2146237932 :	113.025;	280907 :	88.625;	282361 :	0.0;	282575 :	0.0;	282586 :	528.8;	282587 :	200.88;	282599 :	0.0;
	73510 :	1.0;	73751 :	0.0;	73760 :	1.0;	73816 :	0.0;	73876 :	1.2333333333333334;	73972 :	1.2333333333333334;	74055 :	0.0;	74232 :	0.0;	74451 :	1.2333333333333334;	74521 :	3.825;
	74723 :	1.75;	74984 :	1.75;	75006 :	3.825;	75064 :	0.0;	75131 :	0.0;	75279 :	15.691666666666666;	75318 :	8.65;	75467 :	0.0;	75533 :	6.3;	75579 :	14.524999999999999;
	75627 :	18.52;	75631 :	3.4;	75634 :	11.524999999999999;	75659 :	3.4;	75766 :	16.686666666666667;	75778 :	722.5;	75794 :	528.8;	75880 :	1.4666666666666668;	75937 :	42.15;	75961 :	5.35;
	76069 :	14.416666666666666;	76072 :	2.4833333333333334;	76108 :	10.2;	76138 :	23.445;	76144 :	2.4833333333333334;	76153 :	15.219999999999999;	76187 :	282.65;	76243 :	820.675;	76300 :	42.15;	76316 :	42.15;
	76354 :	2.4833333333333334;	76442 :	1.8;	76462 :	19.549999999999997;	76513 :	13.033333333333333;	76541 :	538.025;	76550 :	151.625;	76554 :	11.55;	76573 :	7.433333333333334;	76579 :	20.46666666666667;	76599 :	2.6833333333333336;
	76604 :	200.88;	76634 :	200.88;	76655 :	2.6833333333333336;	76673 :	482.9;	76712 :	538.025;	76727 :	9.35;	76732 :	538.025;	76735 :	722.5;	76759 :	3.533333333333333;	76801 :	9.35;
	76812 :	61.56666666666666;	76819 :	146.875;	76824 :	200.88;	76840 :	32.68333333333334;	76844 :	37.4;	76851 :	200.25;	76862 :	90.775;	76921 :	50.650000000000006;	76949 :	3.533333333333333;	76963 :	154.80833333333334;
	77007 :	255.57999999999998;	77022 :	24.333333333333332;	77039 :	3.533333333333333;	77056 :	61.56666666666666;	77076 :	114.38333333333333;	77104 :	76.625;	77108 :	68.23214285714286;	77110 :	56.55833333333334;	77142 :	318.1666666666667;	77166 :	64.03333333333333;
	77174 :	25.400000000000002;	77182 :	46.96666666666667;	77189 :	3.0;	77223 :	32.225;	77227 :	75.03333333333333;	77250 :	31.857142857142858;	77295 :	318.1666666666667;	77303 :	107.48214285714286;	77317 :	71.10714285714286;	77342 :	39.65;
	77377 :	3.0;	77387 :	54.7;	77398 :	238.88333333333333;	77406 :	5.3;	77433 :	25.65;	77434 :	48.050000000000004;	77450 :	91.33833333333334;	77469 :	59.923809523809524;	77481 :	412.4666666666667;	77485 :	116.28333333333333;
	77489 :	59.923809523809524;	77511 :	27.56;	77520 :	48.050000000000004;	77546 :	3.5;	77559 :	121.97380952380954;	77561 :	12.033333333333333;	77577 :	26.29;	77604 :	32.24;	77614 :	75.61666666666667;	77624 :	9.84;
	77639 :	201.21666666666664;	77669 :	15.333333333333334;	77678 :	202.49166666666667;	77688 :	9.84;	77692 :	1.29;	77700 :	3.66;	77738 :	3.94;	77742 :	42.25333333333334;	77800 :	1.3933333333333333;	77809 :	0.5;
	77815 :	62.25;	77818 :	22.645;	77820 :	3.0;	77870 :	10.379999999999999;	77871 :	9.26;	77872 :	1.915;	77877 :	2.57;	77883 :	34.214999999999996;	77887 :	0.9400000000000001;	77897 :	27.566666666666666;
	77910 :	66.35;	77930 :	14.2;	77931 :	29.475;	77987 :	3.668333333333333;	77989 :	1.28;	78066 :	0.9400000000000001;	78070 :	3.83;	78098 :	12.033333333333333;	78144 :	2.666666666666667;	78187 :	0.7333333333333334;
	78204 :	16.075;	78205 :	14.2;	78207 :	1.815;	78212 :	2.55;	78231 :	3.6333333333333333;	78233 :	0.0;	78242 :	2.5583333333333336;	78249 :	0.8;	78278 :	1.9333333333333333;	78289 :	0.8833333333333333;
	78300 :	3.123333333333333;	78344 :	0.0;	78360 :	0.475;	78388 :	0.4;	78425 :	0.64;	78461 :	1.64;	78467 :	0.0;	78478 :	1.64;	78487 :	1.8083333333333333;	78510 :	1.7149999999999999;
	78579 :	1.1233333333333333;	78679 :	0.48333333333333334;	78692 :	2.1333333333333333;	78703 :	2.915;	78726 :	0.64;	78771 :	1.275;	78903 :	0.0;	78929 :	0.16;	78974 :	0.0;	79022 :	0.0;
	79047 :	0.16;	79049 :	0.0;	79060 :	0.64;	79066 :	0.0;	79079 :	0.0;	79126 :	0.0;	79169 :	0.0;	79188 :	0.0;	79203 :	0.0;	79208 :	0.7000000000000001;
	79320 :	0.0;	79358 :	0.0;	79409 :	0.54;	79460 :	0.54;	79524 :	0.0;	79701 :	0.0;	79719 :	0.0;	79968 :	0.0;	80004 :	0.0;	80020 :	0.0;
	80109 :	0.0;	80264 :	0.0;	80332 :	0.0;	80833 :	0.0;	80838 :	0.0;

Origin	1000001
	1000000 :	0.0;	1000001 :	0.0;	1000002 :	0.0;	1000003 :	0.0;	1000004 :	0.0;	1000005 :	0.0;	1000007 :	0.0;	1000008 :	0.0;	1000009 :	0.0;	1000010 :	0.0;
	1000011 :	0.0;	1000012 :	48.9;	1000013 :	0.0;	1000014 :	0.0;	1000015 :	0.0;	1000016 :	0.0;	1000017 :	0.0;	1000018 :	0.0;	1000019 :	0.0;	1000020 :	0.0;
	1000021 :	0.0;	1000022 :	0.0;	1000023 :	18.7;	1000024 :	0.0;	1000025 :	0.0;	1000026 :	0.0;	1000027 :	8.1;	1000028 :	0.0;	1000029 :	0.0;	1000030 :	0.0;
	1000031 :	0.0;	1000032 :	0.0;	1000033 :	0.0;	1000034 :	0.0;	1000035 :	0.0;	1000036 :	2.2;	1000037 :	0.0;	1000038 :	0.0;	1000039 :	0.0;	1000040 :	0.0;
	1000041 :	13.4;	1000042 :	0.0;	1000043 :	0.0;	1000044 :	0.0;	1000045 :	0.0;	1000046 :	0.0;	1000047 :	0.0;	1000048 :	0.0;	113707 :	2.6333333333333333;	114425 :	0.0;
	114430 :	0.0;	114489 :	0.0;	114588 :	1.8;	2146236900 :	0.0;	2146237252 :	1.9;	2146237358 :	7.25;	2146237363 :	22.626666666666665;	2146237366 :	0.0;	2146237373 :	1.4666666666666668;	2146237375 :	0.0;
	2146237805 :	0.0;	2146237822 :	0.0;	2146237837 :	0.0;	2146237900 :	23.166666666666664;	2146237901 :	0.0;	2146237902 :	0.0;	2146237904 :	0.0;	2146237906 :	0.0;	2146237907 :	0.0;	2146237908 :	19.891666666666666;
	2146237909 :	18.485;	2146237910 :	9.16;	2146237911 :	1091.6583333333333;	2146237912 :	31.65;	2146237913 :	9.6;	2146237915 :	0.0;	2146237917 :	0.0;	2146237920 :	0.0;	2146237921 :	0.0;	2146237928 :	0.0;
	2146237929 :	11.475;	2146237930 :	0.0;	2146237931 :	0.0;	2146237932 :	24.009999999999998;	280907 :	7.75;	282361 :	0.0;	282575 :	0.0;	282586 :	0.0;	282587 :	261.08000000000004;	282599 :	0.0;
	73510 :	0.0;	73751 :	0.0;	73760 :	0.0;	73816 :	0.0;	73876 :	0.0;	73972 :	0.0;	74055 :	0.0;	74232 :	0.0;	74451 :	0.0;	74521 :	0.0;
	74723 :	0.0;	74984 :	0.0;	75006 :	0.0;	75064 :	0.0;	75131 :	0.0;	75279 :	1.8666666666666665;	75318 :	0.0;	75467 :	0.0;	75533 :	3.9;	75579 :	9.6;
	75627 :	20.11;	75631 :	2.6333333333333333;	75634 :	13.850000000000001;	75659 :	2.6333333333333333;	75766 :	13.826666666666666;	75778 :	829.9333333333334;	75794 :	0.0;	75880 :	1.8666666666666665;	75937 :	28.05;	75961 :	4.25;
	76069 :	9.55;	76072 :	2.2333333333333334;	76108 :	8.15;	76138 :	17.66;	76144 :	2.2333333333333334;	76153 :	11.959999999999999;	76187 :	31.65;	76243 :	106.82499999999999;	76300 :	28.05;	76316 :	28.05;
	76354 :	2.2333333333333334;	76442 :	2.8;	76462 :	14.325;	76513 :	10.666666666666666;	76541 :	75.175;	76550 :	55.425;	76554 :	7.533333333333333;	76573 :	5.433333333333334;	76579 :	16.1;	76599 :	2.7333333333333334;
	76604 :	261.08000000000004;	76634 :	261.08000000000004;	76655 :	2.4333333333333336;	76673 :	84.65;	76712 :	75.175;	76727 :	6.175;	76732 :	75.175;	76735 :	829.9333333333334;	76759 :	3.233333333333333;	76801 :	6.175;
	76812 :	16.466666666666665;	76819 :	36.535;	76824 :	261.08000000000004;	76840 :	13.733333333333334;	76844 :	9.16;	76851 :	53.0;	76862 :	25.625;	76921 :	16.666666666666668;	76949 :	3.233333333333333;	76963 :	32.49166666666667;
	77007 :	522.8050000000001;	77022 :	6.7;	77039 :	3.233333333333333;	77056 :	16.466666666666665;	77076 :	14.066666666666666;	77104 :	17.71666666666667;	77108 :	12.853571428571428;	77110 :	10.2;	77142 :	39.233333333333334;	77166 :	6.866666666666667;
	77174 :	8.366666666666667;	77182 :	5.7;	77189 :	0.0;	77223 :	3.5;	77227 :	4.25;	77250 :	3.5285714285714285;	77295 :	39.233333333333334;	77303 :	18.378571428571426;	77317 :	9.053571428571429;	77342 :	5.45;
	77377 :	0.0;	77387 :	261.725;	77398 :	12.616666666666667;	77406 :	1.9;	77433 :	0.0;	77434 :	0.0;	77450 :	4.25;	77469 :	3.5285714285714285;	77481 :	300.95833333333337;	77485 :	4.25;
	77489 :	3.5285714285714285;	77511 :	1.4;	77520 :	0.0;	77546 :	0.0;	77559 :	8.978571428571428;	77561 :	0.0;	77577 :	0.0;	77604 :	0.0;	77614 :	0.0;	77624 :	0.0;
	77639 :	5.45;	77669 :	0.0;	77678 :	0.0;	77688 :	0.0;	77692 :	0.0;	77700 :	0.0;	77738 :	0.0;	77742 :	0.0;	77800 :	0.0;	77809 :	0.0;
	77815 :	0.0;	77818 :	0.0;	77820 :	0.0;	77870 :	0.0;	77871 :	0.0;	77872 :	0.0;	77877 :	0.0;	77883 :	0.0;	77887 :	0.0;	77897 :	0.0;
	77910 :	0.0;	77930 :	0.0;	77931 :	0.0;	77987 :	0.0;	77989 :	0.0;	78066 :	0.0;	78070 :	0.0;	78098 :	0.0;	78144 :	0.0;	78187 :	0.0;
	78204 :	0.0;	78205 :	0.0;	78207 :	0.0;	78212 :	0.0;	78231 :	0.0;	78233 :	0.0;	78242 :	0.0;	78249 :	0.0;	78278 :	0.0;	78289 :	0.0;
	78300 :	0.0;	78344 :	0.0;	78360 :	0.0;	78388 :	0.0;	78425 :	0.0;	78461 :	0.0;	78467 :	0.0;	78478 :	0.0;	78487 :	0.0;	78510 :	0.0;
	78579 :	0.0;	78679 :	0.0;	78692 :	0.0;	78703 :	0.0;	78726 :	0.0;	78771 :	0.0;	78903 :	0.0;	78929 :	0.0;	78974 :	0.0;	79022 :	0.0;
	79047 :	0.0;	79049 :	0.0;	79060 :	0.0;	79066 :	0.0;	79079 :	0.0;	79126 :	0.0;	79169 :	0.0;	79188 :	0.0;	79203 :	0.0;	79208 :	0.0;
	79320 :	0.0;	79358 :	0.0;	79409 :	0.0;	79460 :	0.0;	79524 :	0.0;	79701 :	0.0;	79719 :	0.0;	79968 :	0.0;	80004 :	0.0;	80020 :	0.0;
	80109 :	0.0;	80264 :	0.0;	80332 :	0.0;	80833 :	0.0;	80838 :	0.0;

Origin	1000002
	1000000 :	0.0;	1000001 :	0.0;	1000002 :	0.0;	1000003 :	0.0;	1000004 :	0.0;	1000005 :	0.0;	1000007 :	0.0;	1000008 :	0.0;	1000009 :	0.0;	1000010 :	0.0;
	1000011 :	0.2;	1000012 :	32.5;	1000013 :	0.0;	1000014 :	0.0;	1000015 :	0.1;	1000016 :	0.0;	1000017 :	0.0;	1000018 :	1.5;	1000019 :	0.0;	1000020 :	0.0;
	1000021 :	0.0;	1000022 :	0.0;	1000023 :	16.7;	1000024 :	0.0;	1000025 :	0.0;	1000026 :	0.0;	1000027 :	4.7;	1000028 :	0.0;	1000029 :	0.0;	1000030 :	0.0;
	1000031 :	0.0;	1000032 :	0.0;	1000033 :	0.0;	1000034 :	0.0;	1000035 :	0.0;	1000036 :	1.2;	1000037 :	0.0;	1000038 :	0.0;	1000039 :	0.0;	1000040 :	0.0;
	1000041 :	10.5;	1000042 :	0.0;	1000043 :	0.0;	1000044 :	0.0;	1000045 :	0.0;	1000046 :	0.0;	1000047 :	0.0;	1000048 :	0.0;	113707 :	1.4666666666666668;	114425 :	0.0;
	114430 :	0.0;	114489 :	0.0;	114588 :	1.9;	2146236900 :	0.09999999999999999;	2146237252 :	0.05;	2146237358 :	25.333333333333332;	2146237363 :	11.446666666666665;	2146237366 :	15.766666666666666;	2146237373 :	6.566666666666666;	2146237375 :	69.45;
	2146237805 :	0.1;	2146237822 :	0.075;	2146237837 :	0.12;	2146237900 :	15.5;	2146237901 :	0.045;	2146237902 :	0.09999999999999999;	2146237904 :	0.0;	2146237906 :	0.0;	2146237907 :	0.6;	2146237908 :	50.23333333333333;
	2146237909 :	17.494999999999997;	2146237910 :	6.42;	2146237911 :	934.8583333333333;	2146237912 :	0.0;	2146237913 :	5.675000000000001;	2146237915 :	0.075;	2146237917 :	0.325;	2146237920 :	0.37999999999999995;	2146237921 :	0.27999999999999997;	2146237928 :	0.0;
	2146237929 :	7.25;	2146237930 :	27.58;	2146237931 :	0.665;	2146237932 :	25.945;	280907 :	56.45;	282361 :	0.0;	282575 :	0.0;	282586 :	0.0;	282587 :	0.5599999999999999;	282599 :	0.0;
	73510 :	0.0;	73751 :	0.0;	73760 :	0.0;	73816 :	0.0;	73876 :	0.0;	73972 :	0.0;	74055 :	0.0;	74232 :	0.0;	74451 :	0.0;	74521 :	0.0;
	74723 :	0.0;	74984 :	0.0;	75006 :	0.0;	75064 :	0.0;	75131 :	0.0;	75279 :	0.06666666666666667;	75318 :	0.0;	75467 :	0.0;	75533 :	2.3000000000000003;	75579 :	5.675000000000001;
	75627 :	10.28;	75631 :	1.4666666666666668;	75634 :	6.975;	75659 :	1.4666666666666668;	75766 :	6.746666666666666;	75778 :	55.93333333333334;	75794 :	0.0;	75880 :	0.06666666666666667;	75937 :	16.6;	75961 :	2.05;
	76069 :	5.15;	76072 :	1.6333333333333335;	76108 :	3.5;	76138 :	10.055;	76144 :	1.6333333333333335;	76153 :	6.68;	76187 :	0.0;	76243 :	44.65;	76300 :	16.6;	76316 :	16.6;
	76354 :	1.6333333333333335;	76442 :	2.5;	76462 :	7.65;	76513 :	4.766666666666667;	76541 :	44.65;	76550 :	29.3;	76554 :	4.733333333333333;	76573 :	3.5666666666666664;	76579 :	8.333333333333332;	76599 :	2.1333333333333337;
	76604 :	0.5599999999999999;	76634 :	0.5599999999999999;	76655 :	1.9333333333333336;	76673 :	32.675;	76712 :	44.65;	76727 :	4.15;	76732 :	44.65;	76735 :	55.93333333333334;	76759 :	2.1;	76801 :	4.15;
	76812 :	11.166666666666666;	76819 :	19.119999999999997;	76824 :	0.5599999999999999;	76840 :	9.216666666666667;	76844 :	6.42;	76851 :	32.675;	76862 :	19.975;	76921 :	16.85;	76949 :	2.1;	76963 :	32.40833333333333;
	77007 :	879.4849999999999;	77022 :	4.333333333333333;	77039 :	2.1;	77056 :	11.166666666666666;	77076 :	22.583333333333332;	77104 :	30.25;	77108 :	23.746428571428574;	77110 :	13.633333333333333;	77142 :	154.13333333333333;	77166 :	12.433333333333332;
	77174 :	11.200000000000001;	77182 :	25.066666666666666;	77189 :	0.05;	77223 :	9.3;	77227 :	61.28333333333333;	77250 :	12.671428571428573;	77295 :	154.13333333333333;	77303 :	32.19642857142857;	77317 :	21.121428571428574;	77342 :	19.75;
	77377 :	0.075;	77387 :	878.925;	77398 :	172.05;	77406 :	0.05;	77433 :	24.025;	77434 :	77.51666666666667;	77450 :	146.725;	77469 :	36.13809523809524;	77481 :	1494.1583333333333;	77485 :	101.07499999999999;
	77489 :	36.13809523809524;	77511 :	17.416666666666668;	77520 :	77.51666666666667;	77546 :	0.05;	77559 :	74.08809523809524;	77561 :	301.6666666666667;	77577 :	24.104999999999997;	77604 :	57.81999999999999;	77614 :	236.95;	77624 :	39.62;
	77639 :	158.61666666666667;	77669 :	61.199999999999996;	77678 :	199.20833333333334;	77688 :	39.62;	77692 :	0.18;	77700 :	0.2;	77738 :	0.235;	77742 :	167.58666666666664;	77800 :	0.2;	77809 :	0.0;
	77815 :	146.79666666666668;	77818 :	40.73;	77820 :	0.075;	77870 :	39.446666666666665;	77871 :	27.68;	77872 :	0.185;	77877 :	0.36;	77883 :	79.91166666666666;	77887 :	0.16;	77897 :	159.43333333333334;
	77910 :	216.24666666666667;	77930 :	69.28;	77931 :	70.305;	77987 :	0.6;	77989 :	0.18;	78066 :	0.16;	78070 :	0.63;	78098 :	301.6666666666667;	78144 :	0.39999999999999997;	78187 :	0.09999999999999999;
	78204 :	1.2249999999999999;	78205 :	69.28;	78207 :	0.26;	78212 :	0.45;	78231 :	0.8999999999999999;	78233 :	0.0;	78242 :	0.48333333333333334;	78249 :	0.2;	78278 :	0.3;	78289 :	0.175;
	78300 :	0.6233333333333333;	78344 :	0.0;	78360 :	0.025;	78388 :	0.075;	78425 :	0.13999999999999999;	78461 :	0.33999999999999997;	78467 :	0.0;	78478 :	0.33999999999999997;	78487 :	0.33333333333333337;	78510 :	0.33999999999999997;
	78579 :	0.24;	78679 :	0.09999999999999999;	78692 :	0.6;	78703 :	0.665;	78726 :	0.13999999999999999;	78771 :	0.325;	78903 :	0.0;	78929 :	0.02;	78974 :	0.0;	79022 :	0.0;
	79047 :	0.02;	79049 :	0.0;	79060 :	0.13999999999999999;	79066 :	0.0;	79079 :	0.0;	79126 :	0.0;	79169 :	0.0;	79188 :	0.0;	79203 :	0.0;	79208 :	0.3;
	79320 :	0.0;	79358 :	0.0;	79409 :	0.27999999999999997;	79460 :	0.27999999999999997;	79524 :	0.0;	79701 :	0.0;	79719 :	0.0;	79968 :	0.0;	80004 :	0.0;	80020 :	0.0;
	80109 :	0.0;	80264 :	0.0;	80332 :	0.0;	80833 :	0.0;	80838 :	0.0;

Origin	1000003
	1000000 :	8.8;	1000001 :	0.0;	1000002 :	0.0;	1000003 :	0.0;	1000004 :	0.0;	1000005 :	292.9;	1000007 :	5.2;	1000008 :	0.0;	1000009 :	0.0;	1000010 :	0.0;
	1000011 :	0.0;	1000012 :	0.0;	1000013 :	0.0;	1000014 :	0.0;	1000015 :	0.0;	1000016 :	17.1;	1000017 :	60.9;	1000018 :	0.0;	1000019 :	72.3;	1000020 :	0.0;
	1000021 :	0.0;	1000022 :	0.0;	1000023 :	0.0;	1000024 :	2.4;	1000025 :	0.0;	1000026 :	0.0;	1000027 :	0.0;	1000028 :	279.3;	1000029 :	90.8;	1000030 :	0.0;
	1000031 :	0.0;	1000032 :	0.0;	1000033 :	0.0;	1000034 :	0.0;	1000035 :	0.0;	1000036 :	0.0;	1000037 :	0.0;	1000038 :	86.4;	1000039 :	0.0;	1000040 :	0.0;
	1000041 :	0.0;	1000042 :	0.0;	1000043 :	0.0;	1000044 :	0.0;	1000045 :	74.7;	1000046 :	0.0;	1000047 :	0.0;	1000048 :	0.0;	113707 :	0.0;	114425 :	0.0;
	114430 :	0.0;	114489 :	0.06666666666666667;	114588 :	0.0;	2146236900 :	0.0;	2146237252 :	0.0;	2146237358 :	0.0;	2146237363 :	0.0;	2146237366 :	0.0;	2146237373 :	0.3333333333333333;	2146237375 :	0.3;
	2146237805 :	0.0;	2146237822 :	0.0;	2146237837 :	0.0;	2146237900 :	0.0;	2146237901 :	0.0;	2146237902 :	0.0;	2146237904 :	0.24;	2146237906 :	0.24;	2146237907 :	0.3666666666666667;	2146237908 :	1.3083333333333333;
	2146237909 :	1.225;	2146237910 :	0.0;	2146237911 :	3.1500000000000004;	2146237912 :	20.233333333333334;	2146237913 :	0.0;	2146237915 :	0.0;	2146237917 :	0.24;	2146237920 :	0.0;	2146237921 :	0.0;	2146237928 :	0.0;
	2146237929 :	0.0;	2146237930 :	0.0;	2146237931 :	0.0;	2146237932 :	2.2;	280907 :	0.0;	282361 :	0.0;	282575 :	19.933333333333334;	282586 :	1.7;	282587 :	0.6599999999999999;	282599 :	0.0;
	73510 :	5.55;	73751 :	13.0;	73760 :	5.55;	73816 :	13.0;	73876 :	113.7;	73972 :	113.7;	74055 :	0.0;	74232 :	0.0;	74451 :	113.7;	74521 :	13.0;
	74723 :	0.0;	74984 :	0.0;	75006 :	13.0;	75064 :	6.933333333333334;	75131 :	6.933333333333334;	75279 :	31.099999999999998;	75318 :	11.7;	75467 :	3.9333333333333336;	75533 :	0.0;	75579 :	0.0;
	75627 :	0.0;	75631 :	0.0;	75634 :	0.0;	75659 :	0.0;	75766 :	6.3999999999999995;	75778 :	6.033333333333333;	75794 :	1.7;	75880 :	6.3999999999999995;	75937 :	6.55;	75961 :	0.0;
	76069 :	0.0;	76072 :	0.0;	76108 :	0.0;	76138 :	0.0;	76144 :	0.0;	76153 :	0.0;	76187 :	3.3;	76243 :	6.4;	76300 :	6.55;	76316 :	6.55;
	76354 :	0.0;	76442 :	0.0;	76462 :	0.0;	76513 :	0.0;	76541 :	3.1;	76550 :	11.175;	76554 :	0.0;	76573 :	0.0;	76579 :	0.0;	76599 :	0.0;
	76604 :	0.6599999999999999;	76634 :	0.6599999999999999;	76655 :	0.0;	76673 :	7.925;	76712 :	3.1;	76727 :	0.0;	76732 :	3.1;	76735 :	2.1;	76759 :	0.0;	76801 :	0.0;
	76812 :	0.0;	76819 :	4.625;	76824 :	0.6599999999999999;	76840 :	0.0;	76844 :	0.0;	76851 :	4.625;	76862 :	0.0;	76921 :	0.0;	76949 :	0.0;	76963 :	0.0;
	77007 :	1.71;	77022 :	0.0;	77039 :	0.0;	77056 :	0.0;	77076 :	0.0;	77104 :	0.0;	77108 :	2.3535714285714286;	77110 :	0.0;	77142 :	2.1;	77166 :	0.0;
	77174 :	0.0;	77182 :	0.0;	77189 :	0.0;	77223 :	0.0;	77227 :	0.0;	77250 :	1.1285714285714286;	77295 :	2.1;	77303 :	3.3285714285714287;	77317 :	2.1035714285714286;	77342 :	0.0;
	77377 :	0.0;	77387 :	1.05;	77398 :	3.8000000000000003;	77406 :	0.0;	77433 :	0.0;	77434 :	0.8666666666666667;	77450 :	0.0;	77469 :	2.261904761904762;	77481 :	4.95;	77485 :	0.0;
	77489 :	2.261904761904762;	77511 :	0.0;	77520 :	0.8666666666666667;	77546 :	0.0;	77559 :	2.261904761904762;	77561 :	0.8666666666666667;	77577 :	0.0;	77604 :	0.9199999999999999;	77614 :	1.7999999999999998;	77624 :	0.9199999999999999;
	77639 :	3.466666666666667;	77669 :	0.0;	77678 :	4.333333333333334;	77688 :	0.9199999999999999;	77692 :	0.0;	77700 :	0.0;	77738 :	0.0;	77742 :	0.9199999999999999;	77800 :	0.0;	77809 :	0.0;
	77815 :	1.7466666666666668;	77818 :	0.0;	77820 :	0.0;	77870 :	0.0;	77871 :	0.0;	77872 :	0.0;	77877 :	0.0;	77883 :	0.9199999999999999;	77887 :	0.0;	77897 :	0.9333333333333332;
	77910 :	2.046666666666667;	77930 :	0.8800000000000001;	77931 :	0.8800000000000001;	77987 :	0.0;	77989 :	0.0;	78066 :	0.0;	78070 :	0.0;	78098 :	0.8666666666666667;	78144 :	0.0;	78187 :	0.0;
	78204 :	0.1;	78205 :	0.8800000000000001;	78207 :	0.0;	78212 :	0.0;	78231 :	0.5666666666666667;	78233 :	0.575;	78242 :	0.0;	78249 :	0.6749999999999999;	78278 :	0.0;	78289 :	0.0;
	78300 :	0.0;	78344 :	0.575;	78360 :	0.0;	78388 :	0.0;	78425 :	0.0;	78461 :	0.0;	78467 :	0.575;	78478 :	0.0;	78487 :	0.0;	78510 :	0.0;
	78579 :	0.0;	78679 :	0.0;	78692 :	0.3666666666666667;	78703 :	0.0;	78726 :	0.0;	78771 :	0.0;	78903 :	0.0;	78929 :	0.0;	78974 :	0.0;	79022 :	0.0;
	79047 :	0.0;	79049 :	0.0;	79060 :	0.0;	79066 :	0.0;	79079 :	0.0;	79126 :	0.0;	79169 :	0.0;	79188 :	0.0;	79203 :	0.0;	79208 :	0.0;
	79320 :	0.30666666666666664;	79358 :	0.30666666666666664;	79409 :	0.0;	79460 :	0.0;	79524 :	0.0;	79701 :	0.0;	79719 :	0.0;	79968 :	0.0;	80004 :	0.0;	80020 :	0.0;
	80109 :	0.0;	80264 :	0.0;	80332 :	0.0;	80833 :	0.0;	80838 :	0.0;

Origin	1000004
	1000000 :	27.8;	1000001 :	0.0;	1000002 :	0.0;	1000003 :	0.0;	1000004 :	0.0;	1000005 :	2.8;	1000007 :	1.4;	1000008 :	0.0;	1000009 :	0.0;	1000010 :	0.0;
	1000011 :	0.0;	1000012 :	0.0;	1000013 :	0.0;	1000014 :	0.0;	1000015 :	0.0;	1000016 :	76.0;	1000017 :	230.1;	1000018 :	0.0;	1000019 :	219.2;	1000020 :	0.0;
	1000021 :	0.0;	1000022 :	0.0;	1000023 :	0.0;	1000024 :	13.0;	1000025 :	0.0;	1000026 :	0.0;	1000027 :	0.0;	1000028 :	0.0;	1000029 :	0.0;	1000030 :	0.0;
	1000031 :	0.0;	1000032 :	0.0;	1000033 :	0.0;	1000034 :	0.0;	1000035 :	0.0;	1000036 :	0.0;	1000037 :	0.0;	1000038 :	0.0;	1000039 :	0.0;	1000040 :	0.0;
	1000041 :	0.0;	1000042 :	0.0;	1000043 :	0.0;	1000044 :	0.0;	1000045 :	192.3;	1000046 :	0.0;	1000047 :	0.0;	1000048 :	0.0;	113707 :	0.0;	114425 :	0.0;
	114430 :	0.0;	114489 :	0.06666666666666667;	114588 :	0.0;	2146236900 :	0.0;	2146237252 :	0.0;	2146237358 :	0.0;	2146237363 :	0.0;	2146237366 :	0.0;	2146237373 :	0.0;	2146237375 :	0.1;
	2146237805 :	0.0;	2146237822 :	0.0;	2146237837 :	0.0;	2146237900 :	0.0;	2146237901 :	0.0;	2146237902 :	0.0;	2146237904 :	0.13999999999999999;	2146237906 :	0.13999999999999999;	2146237907 :	0.19999999999999998;	2146237908 :	0.0;
	2146237909 :	0.0;	2146237910 :	0.0;	2146237911 :	6.075;	2146237912 :	389.325;	2146237913 :	0.0;	2146237915 :	0.0;	2146237917 :	0.265;	2146237920 :	0.0;	2146237921 :	0.0;	2146237928 :	312.025;
	2146237929 :	0.0;	2146237930 :	0.0;	2146237931 :	0.125;	2146237932 :	0.0;	280907 :	0.0;	282361 :	0.0;	282575 :	41.36666666666667;	282586 :	5.4;	282587 :	2.0;	282599 :	0.0;
	73510 :	0.0;	73751 :	10.233333333333333;	73760 :	0.0;	73816 :	10.233333333333333;	73876 :	1.0;	73972 :	1.0;	74055 :	4.2;	74232 :	4.2;	74451 :	1.0;	74521 :	346.55;
	74723 :	316.22499999999997;	74984 :	312.025;	75006 :	346.55;	75064 :	31.133333333333336;	75131 :	31.133333333333336;	75279 :	1094.625;	75318 :	319.35;	75467 :	32.699999999999996;	75533 :	0.0;	75579 :	0.0;
	75627 :	0.0;	75631 :	0.0;	75634 :	0.0;	75659 :	0.0;	75766 :	116.7;	75778 :	38.49999999999999;	75794 :	5.4;	75880 :	116.7;	75937 :	2.2;	75961 :	0.0;
	76069 :	0.0;	76072 :	0.0;	76108 :	0.0;	76138 :	0.0;	76144 :	0.0;	76153 :	0.0;	76187 :	10.075;	76243 :	18.049999999999997;	76300 :	2.2;	76316 :	2.2;
	76354 :	0.0;	76442 :	0.0;	76462 :	0.0;	76513 :	0.0;	76541 :	7.975;	76550 :	2.2;	76554 :	0.0;	76573 :	0.0;	76579 :	0.0;	76599 :	0.0;
	76604 :	2.0;	76634 :	2.0;	76655 :	0.0;	76673 :	10.075;	76712 :	7.975;	76727 :	0.0;	76732 :	7.975;	76735 :	5.8;	76759 :	0.0;	76801 :	0.0;
	76812 :	0.0;	76819 :	0.0;	76824 :	2.0;	76840 :	0.0;	76844 :	0.0;	76851 :	0.0;	76862 :	0.0;	76921 :	0.0;	76949 :	0.0;	76963 :	0.0;
	77007 :	2.275;	77022 :	0.0;	77039 :	0.0;	77056 :	0.0;	77076 :	0.0;	77104 :	0.0;	77108 :	0.0;	77110 :	0.0;	77142 :	0.5666666666666667;	77166 :	0.0;
	77174 :	0.0;	77182 :	0.0;	77189 :	0.0;	77223 :	0.0;	77227 :	0.0;	77250 :	0.0;	77295 :	0.5666666666666667;	77303 :	0.0;	77317 :	0.0;	77342 :	0.0;
	77377 :	0.0;	77387 :	0.275;	77398 :	0.0;	77406 :	0.0;	77433 :	0.0;	77434 :	0.25;	77450 :	0.0;	77469 :	0.0;	77481 :	1.3416666666666668;	77485 :	0.0;
	77489 :	0.0;	77511 :	0.0;	77520 :	0.25;	77546 :	0.0;	77559 :	0.0;	77561 :	0.2333333333333333;	77577 :	0.0;	77604 :	0.0;	77614 :	0.5166666666666666;	77624 :	0.0;
	77639 :	0.0;	77669 :	0.0;	77678 :	0.25;	77688 :	0.0;	77692 :	0.0;	77700 :	0.0;	77738 :	0.0;	77742 :	0.0;	77800 :	0.0;	77809 :	0.0;
	77815 :	0.63;	77818 :	0.0;	77820 :	0.0;	77870 :	0.0;	77871 :	0.0;	77872 :	0.0;	77877 :	0.0;	77883 :	0.0;	77887 :	0.0;	77897 :	0.26666666666666666;
	77910 :	0.73;	77930 :	0.38;	77931 :	0.38;	77987 :	0.0;	77989 :	0.0;	78066 :	0.0;	78070 :	0.0;	78098 :	0.2333333333333333;	78144 :	0.0;	78187 :	0.0;
	78204 :	0.0;	78205 :	0.38;	78207 :	0.0;	78212 :	0.0;	78231 :	0.4;	78233 :	0.125;	78242 :	0.0;	78249 :	0.125;	78278 :	0.0;	78289 :	0.0;
	78300 :	0.0;	78344 :	0.125;	78360 :	0.0;	78388 :	0.0;	78425 :	0.0;	78461 :	0.0;	78467 :	0.125;	78478 :	0.0;	78487 :	0.0;	78510 :	0.0;
	78579 :	0.0;	78679 :	0.0;	78692 :	0.19999999999999998;	78703 :	0.125;	78726 :	0.0;	78771 :	0.125;	78903 :	0.0;	78929 :	0.0;	78974 :	0.0;	79022 :	0.0;
	79047 :	0.0;	79049 :	0.0;	79060 :	0.0;	79066 :	0.0;	79079 :	0.0;	79126 :	0.0;	79169 :	0.0;	79188 :	0.0;	79203 :	0.0;	79208 :	0.0;
	79320 :	0.20666666666666667;	79358 :	0.20666666666666667;	79409 :	0.0;	79460 :	0.0;	79524 :	0.0;	79701 :	0.0;	79719 :	0.0;	79968 :	0.0;	80004 :	0.0;	80020 :	0.0;
	80109 :	0.0;	80264 :	0.0;	80332 :	0.0;	80833 :	0.0;	80838 :	0.0;

Origin	1000005
	1000000 :	0.0;	1000001 :	0.0;	1000002 :	0.0;	1000003 :	278.6;	1000004 :	3.0;	1000005 :	0.0;	1000007 :	0.0;	1000008 :	0.0;	1000009 :	0.0;	1000010 :	0.0;
	1000011 :	0.0;	1000012 :	20.0;	1000013 :	0.0;	1000014 :	0.0;	1000015 :	2.0;	1000016 :	112.2;	1000017 :	369.1;	1000018 :	8.7;	1000019 :	511.3;	1000020 :	0.0;
	1000021 :	0.0;	1000022 :	0.0;	1000023 :	0.0;	1000024 :	0.0;	1000025 :	0.0;	1000026 :	0.0;	1000027 :	0.0;	1000028 :	77.5;	1000029 :	0.0;	1000030 :	0.0;
	1000031 :	22.6;	1000032 :	0.0;	1000033 :	0.0;	1000034 :	0.0;	1000035 :	0.0;	1000036 :	0.4;	1000037 :	0.0;	1000038 :	64.8;	1000039 :	0.0;	1000040 :	154.4;
	1000041 :	19.1;	1000042 :	0.0;	1000043 :	0.0;	1000044 :	0.0;	1000045 :	1100.1;	1000046 :	0.0;	1000047 :	0.0;	1000048 :	0.0;	113707 :	0.0;	114425 :	0.31333333333333335;
	114430 :	0.3;	114489 :	0.3333333333333333;	114588 :	1.0;	2146236900 :	1.4666666666666668;	2146237252 :	1.0;	2146237358 :	5.033333333333333;	2146237363 :	15.826666666666666;	2146237366 :	1.5333333333333332;	2146237373 :	0.8666666666666667;	2146237375 :	1.9;
	2146237805 :	0.6799999999999999;	2146237822 :	0.525;	2146237837 :	0.4766666666666667;	2146237900 :	7.799999999999999;	2146237901 :	0.485;	2146237902 :	0.63;	2146237904 :	0.96;	2146237906 :	0.96;	2146237907 :	1.1333333333333333;	2146237908 :	8.725;
	2146237909 :	9.985;	2146237910 :	4.76;	2146237911 :	49.71666666666667;	2146237912 :	314.23333333333335;	2146237913 :	0.0;	2146237915 :	0.875;	2146237917 :	1.71;	2146237920 :	0.6166666666666667;	2146237921 :	0.6;	2146237928 :	91.525;
	2146237929 :	12.158333333333333;	2146237930 :	4.34;	2146237931 :	1.79;	2146237932 :	12.61;	280907 :	16.625;	282361 :	0.0;	282575 :	472.83333333333337;	282586 :	47.8;	282587 :	23.3;	282599 :	0.0;
	73510 :	15.95;	73751 :	184.29999999999998;	73760 :	15.95;	73816 :	184.29999999999998;	73876 :	337.73333333333335;	73972 :	337.73333333333335;	74055 :	263.76666666666665;	74232 :	263.76666666666665;	74451 :	337.73333333333335;	74521 :	41.6;
	74723 :	355.29166666666663;	74984 :	91.525;	75006 :	41.6;	75064 :	288.53333333333336;	75131 :	288.53333333333336;	75279 :	173.82500000000002;	75318 :	30.6;	75467 :	203.73333333333335;	75533 :	0.0;	75579 :	0.0;
	75627 :	22.21;	75631 :	0.0;	75634 :	11.95;	75659 :	0.0;	75766 :	20.36;	75778 :	240.9;	75794 :	47.8;	75880 :	10.1;	75937 :	19.825;	75961 :	3.35;
	76069 :	11.383333333333333;	76072 :	2.033333333333333;	76108 :	8.4;	76138 :	10.26;	76144 :	2.033333333333333;	76153 :	10.26;	76187 :	68.9;	76243 :	128.60000000000002;	76300 :	19.825;	76316 :	19.825;
	76354 :	2.033333333333333;	76442 :	1.6;	76462 :	12.525;	76513 :	5.566666666666666;	76541 :	59.7;	76550 :	30.65;	76554 :	10.066666666666666;	76573 :	2.9;	76579 :	8.466666666666667;	76599 :	2.2333333333333334;
	76604 :	23.3;	76634 :	23.3;	76655 :	2.1333333333333333;	76673 :	86.375;	76712 :	59.7;	76727 :	4.125;	76732 :	59.7;	76735 :	37.166666666666664;	76759 :	2.0;	76801 :	4.125;
	76812 :	5.3999999999999995;	76819 :	15.584999999999999;	76824 :	23.3;	76840 :	6.449999999999999;	76844 :	4.76;	76851 :	17.475;	76862 :	6.65;	76921 :	7.583333333333333;	76949 :	2.0;	76963 :	9.516666666666667;
	77007 :	35.85;	77022 :	2.4;	77039 :	2.0;	77056 :	5.3999999999999995;	77076 :	5.466666666666667;	77104 :	10.333333333333332;	77108 :	8.39642857142857;	77110 :	6.449999999999999;	77142 :	11.666666666666666;	77166 :	2.8666666666666667;
	77174 :	4.033333333333333;	77182 :	2.6333333333333333;	77189 :	1.75;	77223 :	4.05;	77227 :	14.608333333333333;	77250 :	3.1714285714285713;	77295 :	11.666666666666666;	77303 :	11.02142857142857;	77317 :	5.796428571428571;	77342 :	2.225;
	77377 :	0.875;	77387 :	12.55;	77398 :	13.158333333333333;	77406 :	1.0;	77433 :	4.3;	77434 :	2.9499999999999997;	77450 :	26.82;	77469 :	6.504761904761905;	77481 :	37.75;	77485 :	20.441666666666666;
	77489 :	6.504761904761905;	77511 :	4.43;	77520 :	2.9499999999999997;	77546 :	2.0166666666666666;	77559 :	10.096428571428572;	77561 :	9.700000000000001;	77577 :	4.82;	77604 :	3.706666666666666;	77614 :	6.783333333333333;	77624 :	2.34;
	77639 :	11.025;	77669 :	8.0;	77678 :	14.058333333333334;	77688 :	2.34;	77692 :	0.97;	77700 :	2.1466666666666665;	77738 :	2.235;	77742 :	16.393333333333334;	77800 :	1.2466666666666666;	77809 :	0.26666666666666666;
	77815 :	5.85;	77818 :	6.215;	77820 :	0.875;	77870 :	3.8533333333333335;	77871 :	5.44;	77872 :	1.9516666666666664;	77877 :	2.59;	77883 :	8.248333333333333;	77887 :	1.3599999999999999;	77897 :	3.8333333333333335;