<NUMBER OF ZONES> 1068											
<NUMBER OF NODES> 4807											
<FIRST THRU NODE> 1069											
<NUMBER OF LINKS> 11140											
<ORIGINAL HEADER>~	from	to	capacity (per lane)	length (km)	fftt (min)	alpha	beta	ff speed (km/h)	critical speed (km/h)	lanes	
<END OF METADATA>											
											

~ 	init_node	term_node	capacity	length	free_flow_time	b	power	speed 	critical_speed	lanes	;
	1	1371	900	0.300	0.327	0.282	4	55	42.9	2	;
	2	2012	1600	0.260	0.173	0.282	4	90	70.2	2	;
	3	2402	1100	0.200	0.200	0.282	4	60	46.8	2	;
	4	1875	800	0.160	0.128	0.282	4	75	58.5	1	;
	5	1880	800	0.200	0.171	0.282	4	70	54.6	1	;
	6	1894	800	0.250	0.231	0.282	4	65	50.7	1	;
	7	1970	800	0.520	0.480	0.282	4	65	50.7	1	;
	8	1977	600	0.330	0.440	0.667	4	45	27.0	1	;
	9	3448	600	0.310	0.338	0.667	4	55	33.0	1	;
	10	2012	1600	0.260	0.173	0.282	4	90	70.2	2	;
	11	2867	600	0.450	0.491	0.667	4	55	33.0	5	;
	12	3627	400	0.180	0.270	0.667	4	40	24.0	1	;
	13	3499	1800	0.490	0.267	0.225	4	110	89.8	4	;
	14	3499	1800	0.490	0.267	0.225	4	110	89.8	4	;
	15	3441	700	0.150	0.164	0.667	4	55	33.0	2	;
	16	3576	800	0.360	0.360	0.282	4	60	46.8	1	;
	17	3839	400	1.160	2.320	0.667	4	30	18.0	1	;
	18	2452	1800	0.270	0.675	0.000	4	24	24.0	5	;
	19	2795	1800	0.440	1.100	0.000	4	24	24.0	5	;
	20	2166	1800	0.220	0.550	0.000	4	24	24.0	5	;
	21	3843	1800	0.220	0.550	0.000	4	24	24.0	5	;
	22	3309	1800	0.280	0.700	0.000	4	24	24.0	5	;
	23	3350	1800	0.290	0.725	0.000	4	24	24.0	5	;
	24	3728	1800	0.200	0.500	0.000	4	24	24.0	5	;
	25	3419	1800	0.350	0.875	0.000	4	24	24.0	5	;
	25	3718	1800	0.360	0.900	0.000	4	24	24.0	5	;
	26	4769	1800	0.350	0.875	0.000	4	24	24.0	5	;
	27	3885	1800	0.080	0.200	0.000	4	24	24.0	5	;
	28	3710	1800	0.180	0.450	0.000	4	24	24.0	5	;
	29	2791	1800	0.450	1.125	0.000	4	24	24.0	5	;
	30	3730	1800	0.480	1.200	0.000	4	24	24.0	5	;
	31	3882	1800	0.340	0.850	0.000	4	24	24.0	5	;
	32	2799	1800	0.230	0.575	0.000	4	24	24.0	5	;
	33	1069	1800	0.290	0.725	0.000	4	24	24.0	5	;
	34	2165	1800	0.210	0.525	0.000	4	24	24.0	5	;
	35	2982	1800	0.260	0.650	0.000	4	24	24.0	5	;
	36	2981	1800	0.100	0.250	0.000	4	24	24.0	5	;
	37	2978	1800	0.190	0.475	0.000	4	24	24.0	5	;
	38	3174	1800	0.200	0.500	0.000	4	24	24.0	5	;
	39	2852	1800	0.280	0.700	0.000	4	24	24.0	5	;
	40	2180	1800	0.220	0.550	0.000	4	24	24.0	5	;
	41	1891	1800	0.310	0.775	0.000	4	24	24.0	5	;
	42	3202	1800	0.320	0.800	0.000	4	24	24.0	5	;
	43	1968	1800	0.230	0.575	0.000	4	24	24.0	5	;
	44	2531	1800	0.190	0.475	0.000	4	24	24.0	5	;
	45	2816	1800	0.350	0.875	0.000	4	24	24.0	5	;
	46	1978	1800	0.400	1.000	0.000	4	24	24.0	5	;
	47	3292	1800	1.330	3.325	0.000	4	24	24.0	5	;
	48	3293	1800	0.620	1.550	0.000	4	24	24.0	5	;
	49	3409	1800	0.660	1.650	0.000	4	24	24.0	5	;
	50	2191	1800	0.160	0.400	0.000	4	24	24.0	5	;
	51	3235	1800	0.310	0.775	0.000	4	24	24.0	5	;
	52	3233	1800	0.320	0.800	0.000	4	24	24.0	5	;
	53	3234	1800	0.320	0.800	0.000	4	24	24.0	5	;
	54	1349	1800	0.150	0.375	0.000	4	24	24.0	5	;
	55	2756	1800	0.260	0.650	0.000	4	24	24.0	5	;
	56	2194	1800	0.180	0.450	0.000	4	24	24.0	5	;
	57	3171	1800	0.190	0.475	0.000	4	24	24.0	5	;
	58	2595	1800	0.150	0.375	0.000	4	24	24.0	5	;
	59	2186	1800	0.110	0.275	0.000	4	24	24.0	5	;
	60	2755	1800	0.120	0.300	0.000	4	24	24.0	5	;
	61	2185	1800	0.360	0.900	0.000	4	24	24.0	5	;
	62	2860	1800	0.150	0.375	0.000	4	24	24.0	5	;
	63	2555	1800	0.120	0.300	0.000	4	24	24.0	5	;
	64	3356	1800	0.270	0.675	0.000	4	24	24.0	5	;
	65	3232	1800	0.250	0.625	0.000	4	24	24.0	5	;
	66	3340	1800	0.230	0.575	0.000	4	24	24.0	5	;
	67	2753	1800	0.190	0.475	0.000	4	24	24.0	5	;
	68	3339	1800	0.260	0.650	0.000	4	24	24.0	5	;
	69	3360	1800	0.100	0.250	0.000	4	24	24.0	5	;
	70	3341	1800	0.240	0.600	0.000	4	24	24.0	5	;
	71	2533	1800	0.190	0.475	0.000	4	24	24.0	5	;
	72	2763	1800	0.180	0.450	0.000	4	24	24.0	5	;
	73	2590	1800	0.170	0.425	0.000	4	24	24.0	5	;
	74	2113	1800	0.180	0.450	0.000	4	24	24.0	5	;
	75	2111	1800	0.460	1.150	0.000	4	24	24.0	5	;
	76	2179	1800	0.560	1.400	0.000	4	24	24.0	5	;
	77	3330	1800	0.210	0.525	0.000	4	24	24.0	5	;
	78	3411	1800	0.170	0.425	0.000	4	24	24.0	5	;
	79	1339	1800	0.470	1.175	0.000	4	24	24.0	5	;
	79	2750	1800	0.260	0.650	0.000	4	24	24.0	5	;
	80	1345	1800	0.240	0.600	0.000	4	24	24.0	5	;
	81	3434	1800	0.120	0.300	0.000	4	24	24.0	5	;
	82	2771	1800	0.250	0.625	0.000	4	24	24.0	5	;
	83	2117	1800	0.150	0.375	0.000	4	24	24.0	5	;
	84	3401	1800	0.180	0.450	0.000	4	24	24.0	5	;
	85	3400	1800	0.550	1.375	0.000	4	24	24.0	5	;
	86	2754	1800	0.200	0.500	0.000	4	24	24.0	5	;
	87	2444	1800	1.090	2.725	0.000	4	24	24.0	5	;
	88	3007	1800	0.150	0.375	0.000	4	24	24.0	5	;
	89	2752	1800	0.170	0.425	0.000	4	24	24.0	5	;
	90	2199	1800	0.100	0.250	0.000	4	24	24.0	5	;
	91	1988	100	1.720	4.300	0.000	4	24	24.0	5	;
	91	3298	100	1.750	4.375	0.000	4	24	24.0	5	;
	92	2086	1800	0.710	1.775	0.000	4	24	24.0	5	;
	93	3297	1800	0.480	1.200	0.000	4	24	24.0	5	;
	94	2000	1800	0.380	0.950	0.000	4	24	24.0	5	;
	95	2001	1800	0.470	1.175	0.000	4	24	24.0	5	;
	96	2491	1800	0.430	1.075	0.000	4	24	24.0	5	;
	97	1138	1800	0.420	1.050	0.000	4	24	24.0	5	;
	98	3300	1800	0.360	0.900	0.000	4	24	24.0	5	;
	99	1986	1800	1.190	2.975	0.000	4	24	24.0	5	;
	100	2596	1800	1.050	2.625	0.000	4	24	24.0	5	;
	101	3399	1800	0.510	1.275	0.000	4	24	24.0	5	;
	102	3284	1800	1.200	3.000	0.000	4	24	24.0	5	;
	103	2475	1800	0.550	1.375	0.000	4	24	24.0	5	;
	104	3038	1800	0.290	0.725	0.000	4	24	24.0	5	;
	105	3681	1800	0.210	0.525	0.000	4	24	24.0	5	;
	106	3276	1800	0.460	1.150	0.000	4	24	24.0	5	;
	107	3272	1800	0.190	0.475	0.000	4	24	24.0	5	;
	108	3039	1800	0.220	0.550	0.000	4	24	24.0	5	;
	109	3747	1800	0.540	1.350	0.000	4	24	24.0	5	;
	110	3660	1800	0.570	1.425	0.000	4	24	24.0	5	;
	111	2547	1800	0.160	0.400	0.000	4	24	24.0	5	;
	112	2954	1800	0.170	0.425	0.000	4	24	24.0	5	;
	113	3359	1800	0.140	0.350	0.000	4	24	24.0	5	;
	114	3358	1800	0.200	0.500	0.000	4	24	24.0	5	;
	115	2952	1800	0.180	0.450	0.000	4	24	24.0	5	;
	116	3337	1800	0.190	0.475	0.000	4	24	24.0	5	;
	117	2591	1800	0.260	0.650	0.000	4	24	24.0	5	;
	118	2443	1800	0.480	1.200	0.000	4	24	24.0	5	;
	119	3283	100	0.820	2.050	0.000	4	24	24.0	5	;
	119	3436	100	1.500	3.750	0.000	4	24	24.0	5	;
	120	3285	1800	0.460	1.150	0.000	4	24	24.0	5	;
	121	2195	1800	0.300	0.750	0.000	4	24	24.0	5	;
	122	3282	1800	0.560	1.400	0.000	4	24	24.0	5	;
	123	2196	1800	0.230	0.575	0.000	4	24	24.0	5	;
	124	2204	1800	0.410	1.025	0.000	4	24	24.0	5	;
	125	3685	1800	0.290	0.725	0.000	4	24	24.0	5	;
	126	3149	1800	0.200	0.500	0.000	4	24	24.0	5	;
	127	3281	1800	0.400	1.000	0.000	4	24	24.0	5	;
	128	2593	1800	0.300	0.750	0.000	4	24	24.0	5	;
	129	2200	1800	0.590	1.475	0.000	4	24	24.0	5	;
	130	2550	1800	0.120	0.300	0.000	4	24	24.0	5	;
	131	2201	1800	0.160	0.400	0.000	4	24	24.0	5	;
	132	1916	1800	0.240	0.600	0.000	4	24	24.0	5	;
	133	3274	1800	0.230	0.575	0.000	4	24	24.0	5	;
	134	3701	1800	0.730	1.825	0.000	4	24	24.0	5	;
	135	3579	1800	0.520	1.300	0.000	4	24	24.0	5	;
	136	3286	1800	1.860	4.650	0.000	4	24	24.0	5	;
	137	1918	1800	0.140	0.350	0.000	4	24	24.0	5	;
	138	2597	1800	0.420	1.050	0.000	4	24	24.0	5	;
	139	3209	1800	0.120	0.300	0.000	4	24	24.0	5	;
	139	4764	1800	0.440	1.100	0.000	4	24	24.0	5	;
	140	3414	1800	0.230	0.575	0.000	4	24	24.0	5	;
	141	2607	1800	0.060	0.150	0.000	4	24	24.0	5	;
	142	1152	1800	0.160	0.400	0.000	4	24	24.0	5	;
	143	2608	1800	0.130	0.325	0.000	4	24	24.0	5	;
	144	3430	1800	0.120	0.300	0.000	4	24	24.0	5	;
	145	2376	1800	0.120	0.300	0.000	4	24	24.0	5	;
	146	2609	1800	0.130	0.325	0.000	4	24	24.0	5	;
	147	2610	1800	0.120	0.300	0.000	4	24	24.0	5	;
	148	2614	1800	0.120	0.300	0.000	4	24	24.0	5	;
	149	2388	1800	0.090	0.225	0.000	4	24	24.0	5	;
	150	3225	1800	0.060	0.150	0.000	4	24	24.0	5	;
	151	2390	1800	0.140	0.350	0.000	4	24	24.0	5	;
	152	3328	1800	0.090	0.225	0.000	4	24	24.0	5	;
	153	2389	1800	0.090	0.225	0.000	4	24	24.0	5	;
	154	2384	1800	0.250	0.625	0.000	4	24	24.0	5	;
	155	2383	1800	0.150	0.375	0.000	4	24	24.0	5	;
	156	3429	1800	0.150	0.375	0.000	4	24	24.0	5	;
	156	3424	1800	0.090	0.225	0.000	4	24	24.0	5	;
	157	3871	1800	0.170	0.425	0.000	4	24	24.0	5	;
	158	1990	1800	0.130	0.325	0.000	4	24	24.0	5	;
	159	3415	1800	0.160	0.400	0.000	4	24	24.0	5	;
	160	1991	1800	0.570	1.425	0.000	4	24	24.0	5	;
	161	1140	1800	0.170	0.425	0.000	4	24	24.0	5	;
	162	2092	1800	0.280	0.700	0.000	4	24	24.0	5	;
	163	1140	1800	0.700	1.750	0.000	4	24	24.0	5	;
	164	2926	1800	0.460	1.150	0.000	4	24	24.0	5	;
	165	3412	1800	0.180	0.450	0.000	4	24	24.0	5	;
	166	2538	1800	0.100	0.250	0.000	4	24	24.0	5	;
	166	3889	1800	0.110	0.275	0.000	4	24	24.0	5	;
	167	2188	1800	0.230	0.575	0.000	4	24	24.0	5	;
	168	2190	1800	0.230	0.575	0.000	4	24	24.0	5	;
	169	2441	1800	0.320	0.800	0.000	4	24	24.0	5	;
	170	3310	1800	0.810	2.025	0.000	4	24	24.0	5	;
	171	2987	1800	0.360	0.900	0.000	4	24	24.0	5	;
	172	3361	1800	0.250	0.625	0.000	4	24	24.0	5	;
	173	3362	1800	0.320	0.800	0.000	4	24	24.0	5	;
	174	2828	1800	0.300	0.750	0.000	4	24	24.0	5	;
	175	2829	1800	0.280	0.700	0.000	4	24	24.0	5	;
	176	2563	1800	0.670	1.675	0.000	4	24	24.0	5	;
	177	2826	1800	0.270	0.675	0.000	4	24	24.0	5	;
	178	3289	1800	0.250	0.625	0.000	4	24	24.0	5	;
	179	3291	1800	0.160	0.400	0.000	4	24	24.0	5	;
	180	2823	1800	0.200	0.500	0.000	4	24	24.0	5	;
	181	3289	1800	0.180	0.450	0.000	4	24	24.0	5	;
	182	2112	1800	0.170	0.425	0.000	4	24	24.0	5	;
	183	3732	1800	0.150	0.375	0.000	4	24	24.0	5	;
	184	2112	1800	0.530	1.325	0.000	4	24	24.0	5	;
	185	3637	1800	0.170	0.425	0.000	4	24	24.0	5	;
	186	2184	1800	0.150	0.375	0.000	4	24	24.0	5	;
	187	3304	1800	0.160	0.400	0.000	4	24	24.0	5	;
	188	3627	400	0.200	0.300	0.667	4	40	24.0	1	;
	189	3435	1800	0.140	0.350	0.000	4	24	24.0	5	;
	190	2198	1800	0.680	1.700	0.000	4	24	24.0	5	;
	191	3280	1800	0.290	0.725	0.000	4	24	24.0	5	;
	192	2193	1800	0.660	1.650	0.000	4	24	24.0	5	;
	193	2542	1800	0.630	1.575	0.000	4	24	24.0	5	;
	194	2481	1800	0.380	0.950	0.000	4	24	24.0	5	;
	195	3313	1800	0.780	1.950	0.000	4	24	24.0	5	;
	196	3015	1800	0.760	1.900	0.000	4	24	24.0	5	;
	197	2515	1800	0.480	1.200	0.000	4	24	24.0	5	;
	198	1362	1800	0.570	1.425	0.000	4	24	24.0	5	;
	199	3162	1800	0.270	0.675	0.000	4	24	24.0	5	;
	200	1906	1800	0.610	1.525	0.000	4	24	24.0	5	;
	201	3014	1800	0.260	0.650	0.000	4	24	24.0	5	;
	202	2017	1800	0.290	0.725	0.000	4	24	24.0	5	;
	202	2197	1800	0.380	0.950	0.000	4	24	24.0	5	;
	203	1352	1800	0.240	0.600	0.000	4	24	24.0	5	;
	204	4706	1800	0.080	0.200	0.000	4	24	24.0	5	;
	205	2734	1800	0.200	0.500	0.000	4	24	24.0	5	;
	206	3236	1800	0.230	0.575	0.000	4	24	24.0	5	;
	207	2203	1800	0.350	0.875	0.000	4	24	24.0	5	;
	208	3963	1800	0.330	0.825	0.000	4	24	24.0	5	;
	209	1367	1800	0.220	0.550	0.000	4	24	24.0	5	;
	210	1983	1800	0.180	0.450	0.000	4	24	24.0	5	;
	211	3394	1800	0.190	0.475	0.000	4	24	24.0	5	;
	212	3295	1800	0.240	0.600	0.000	4	24	24.0	5	;
	213	2205	1800	0.420	1.050	0.000	4	24	24.0	5	;
	214	3296	1800	0.270	0.675	0.000	4	24	24.0	5	;
	215	3317	1800	0.230	0.575	0.000	4	24	24.0	5	;
	216	3317	1800	0.490	1.225	0.000	4	24	24.0	5	;
	217	2209	1800	0.390	0.975	0.000	4	24	24.0	5	;
	218	3569	1800	0.650	1.625	0.000	4	24	24.0	5	;
	219	3320	1800	0.220	0.550	0.000	4	24	24.0	5	;
	220	3318	1800	0.250	0.625	0.000	4	24	24.0	5	;
	221	2208	1800	0.130	0.325	0.000	4	24	24.0	5	;
	222	3161	1800	0.170	0.425	0.000	4	24	24.0	5	;
	223	2549	1800	0.220	0.550	0.000	4	24	24.0	5	;
	224	2518	1800	0.230	0.575	0.000	4	24	24.0	5	;
	225	3163	1800	0.440	1.100	0.000	4	24	24.0	5	;
	225	3962	1800	0.900	2.250	0.000	4	24	24.0	5	;
	226	3319	1800	0.400	1.000	0.000	4	24	24.0	5	;
	227	1356	1800	0.570	1.425	0.000	4	24	24.0	5	;
	228	3378	1800	0.130	0.325	0.000	4	24	24.0	5	;
	229	2735	1800	0.210	0.525	0.000	4	24	24.0	5	;
	230	3163	1800	0.340	0.850	0.000	4	24	24.0	5	;
	231	3568	1800	0.380	0.950	0.000	4	24	24.0	5	;
	232	3183	1800	0.310	0.775	0.000	4	24	24.0	5	;
	233	2912	1800	0.180	0.450	0.000	4	24	24.0	5	;
	234	2171	1800	0.130	0.325	0.000	4	24	24.0	5	;
	235	3305	1800	0.130	0.325	0.000	4	24	24.0	5	;
	236	2035	1800	0.190	0.475	0.000	4	24	24.0	5	;
	237	4650	1800	0.090	0.225	0.000	4	24	24.0	5	;
	238	3262	1800	0.290	0.725	0.000	4	24	24.0	5	;
	239	3263	1800	0.210	0.525	0.000	4	24	24.0	5	;
	240	1826	1800	0.250	0.625	0.000	4	24	24.0	5	;
	241	2034	100	0.220	0.550	0.000	4	24	24.0	5	;
	241	2487	100	0.200	0.500	0.000	4	24	24.0	5	;
	242	1646	1800	0.170	0.425	0.000	4	24	24.0	5	;
	243	2241	1800	0.120	0.300	0.000	4	24	24.0	5	;
	244	2494	1800	0.240	0.600	0.000	4	24	24.0	5	;
	245	3264	1800	0.400	1.000	0.000	4	24	24.0	5	;
	246	2552	1800	0.420	1.050	0.000	4	24	24.0	5	;
	247	1675	1800	0.200	0.500	0.000	4	24	24.0	5	;
	248	2552	1800	0.480	1.200	0.000	4	24	24.0	5	;
	249	1669	1800	0.230	0.575	0.000	4	24	24.0	5	;
	250	2748	1800	0.120	0.300	0.000	4	24	24.0	5	;
	251	2554	1800	0.080	0.200	0.000	4	24	24.0	5	;
	252	1634	1800	0.250	0.625	0.000	4	24	24.0	5	;
	252	1679	1800	0.170	0.425	0.000	4	24	24.0	5	;
	253	2238	1800	0.420	1.050	0.000	4	24	24.0	5	;
	254	1623	1800	0.200	0.500	0.000	4	24	24.0	5	;
	255	2098	1800	0.170	0.425	0.000	4	24	24.0	5	;
	256	1626	1800	0.180	0.450	0.000	4	24	24.0	5	;
	256	2556	1800	0.280	0.700	0.000	4	24	24.0	5	;
	257	3425	1800	0.370	0.925	0.000	4	24	24.0	5	;
	258	1659	1800	0.110	0.275	0.000	4	24	24.0	5	;
	259	2779	400	0.250	0.625	0.000	4	24	24.0	5	;
	259	3425	400	0.120	0.300	0.000	4	24	24.0	5	;
	260	2215	1800	0.080	0.200	0.000	4	24	24.0	5	;
	261	1660	1800	0.100	0.250	0.000	4	24	24.0	5	;
	262	2493	1800	0.120	0.300	0.000	4	24	24.0	5	;
	263	2211	1800	0.330	0.825	0.000	4	24	24.0	5	;
	264	1664	1800	0.160	0.400	0.000	4	24	24.0	5	;
	265	2553	1800	0.110	0.275	0.000	4	24	24.0	5	;
	266	2440	1800	0.270	0.675	0.000	4	24	24.0	5	;
	267	2221	1800	0.310	0.775	0.000	4	24	24.0	5	;
	268	3036	100	0.320	0.800	0.000	4	24	24.0	5	;
	268	3264	100	0.660	1.650	0.000	4	24	24.0	5	;
	269	4648	1800	0.300	0.750	0.000	4	24	24.0	5	;
	270	2219	1800	0.120	0.300	0.000	4	24	24.0	5	;
	271	2202	1800	0.240	0.600	0.000	4	24	24.0	5	;
	272	2557	1800	0.140	0.350	0.000	4	24	24.0	5	;
	273	2559	1800	0.300	0.750	0.000	4	24	24.0	5	;
	274	3382	1800	0.140	0.350	0.000	4	24	24.0	5	;
	275	2736	1800	0.270	0.675	0.000	4	24	24.0	5	;
	276	3413	1800	0.120	0.300	0.000	4	24	24.0	5	;
	277	3314	1800	0.160	0.400	0.000	4	24	24.0	5	;
	278	3315	1800	0.210	0.525	0.000	4	24	24.0	5	;
	279	2553	1800	0.120	0.300	0.000	4	24	24.0	5	;
	280	3845	1800	0.110	0.275	0.000	4	24	24.0	5	;
	281	3247	1800	0.480	1.200	0.000	4	24	24.0	5	;
	282	3382	1800	0.490	1.225	0.000	4	24	24.0	5	;
	283	2486	1800	0.210	0.525	0.000	4	24	24.0	5	;
	284	1483	1800	0.240	0.600	0.000	4	24	24.0	5	;
	285	2207	1800	0.330	0.825	0.000	4	24	24.0	5	;
	286	2975	1800	0.100	0.250	0.000	4	24	24.0	5	;
	287	2975	1800	0.320	0.800	0.000	4	24	24.0	5	;
	288	2974	1800	0.220	0.550	0.000	4	24	24.0	5	;
	289	3348	1800	0.290	0.725	0.000	4	24	24.0	5	;
	290	2581	1800	0.420	1.050	0.000	4	24	24.0	5	;
	291	3336	1800	0.210	0.525	0.000	4	24	24.0	5	;
	292	2783	1800	0.240	0.600	0.000	4	24	24.0	5	;
	293	2782	1800	0.330	0.825	0.000	4	24	24.0	5	;
	294	1486	1800	0.240	0.600	0.000	4	24	24.0	5	;
	295	2217	1800	0.260	0.650	0.000	4	24	24.0	5	;
	296	2222	1800	0.070	0.175	0.000	4	24	24.0	5	;
	297	1476	1800	0.300	0.750	0.000	4	24	24.0	5	;
	298	1378	1800	0.390	0.975	0.000	4	24	24.0	5	;
	299	2785	1800	0.300	0.750	0.000	4	24	24.0	5	;
	300	1480	1800	0.720	1.800	0.000	4	24	24.0	5	;
	301	3342	1800	0.180	0.450	0.000	4	24	24.0	5	;
	302	3343	1800	0.650	1.625	0.000	4	24	24.0	5	;
	303	3237	1800	0.130	0.325	0.000	4	24	24.0	5	;
	304	3346	1800	0.210	0.525	0.000	4	24	24.0	5	;
	305	3345	1800	0.190	0.475	0.000	4	24	24.0	5	;
	306	3347	1800	0.290	0.725	0.000	4	24	24.0	5	;
	307	2220	1800	0.560	1.400	0.000	4	24	24.0	5	;
	308	3402	1800	0.300	0.750	0.000	4	24	24.0	5	;
	309	2230	1800	0.260	0.650	0.000	4	24	24.0	5	;
	310	2560	1800	0.310	0.775	0.000	4	24	24.0	5	;
	311	1424	1800	0.180	0.450	0.000	4	24	24.0	5	;
	311	2683	1800	0.200	0.500	0.000	4	24	24.0	5	;
	312	2251	1800	0.270	0.675	0.000	4	24	24.0	5	;
	313	2264	1800	0.110	0.275	0.000	4	24	24.0	5	;
	314	2287	1800	0.120	0.300	0.000	4	24	24.0	5	;
	315	1438	1800	0.070	0.175	0.000	4	24	24.0	5	;
	316	2289	1800	0.140	0.350	0.000	4	24	24.0	5	;
	317	1439	1800	0.200	0.500	0.000	4	24	24.0	5	;
	318	1429	1800	0.090	0.225	0.000	4	24	24.0	5	;
	319	3245	1800	0.110	0.275	0.000	4	24	24.0	5	;
	320	2293	1800	0.060	0.150	0.000	4	24	24.0	5	;
	321	2235	1800	0.300	0.750	0.000	4	24	24.0	5	;
	322	2272	1800	0.080	0.200	0.000	4	24	24.0	5	;
	323	2668	1800	0.170	0.425	0.000	4	24	24.0	5	;
	324	4609	1800	0.040	0.100	0.000	4	24	24.0	5	;
	325	2682	1800	0.130	0.325	0.000	4	24	24.0	5	;
	326	1462	1800	0.210	0.525	0.000	4	24	24.0	5	;
	327	1464	1800	0.210	0.525	0.000	4	24	24.0	5	;
	328	2234	1800	0.240	0.600	0.000	4	24	24.0	5	;
	329	1463	1800	0.120	0.300	0.000	4	24	24.0	5	;
	330	1462	1800	0.160	0.400	0.000	4	24	24.0	5	;
	331	1462	1800	0.270	0.675	0.000	4	24	24.0	5	;
	332	2237	1800	0.090	0.225	0.000	4	24	24.0	5	;
	333	2237	1800	0.120	0.300	0.000	4	24	24.0	5	;
	334	4623	1800	0.260	0.650	0.000	4	24	24.0	5	;
	335	2228	1800	0.270	0.675	0.000	4	24	24.0	5	;
	336	2250	100	0.080	0.200	0.000	4	24	24.0	5	;
	336	2510	100	0.140	0.350	0.000	4	24	24.0	5	;
	337	2265	1800	0.060	0.150	0.000	4	24	24.0	5	;
	338	2662	1800	0.230	0.575	0.000	4	24	24.0	5	;
	339	4634	1800	0.070	0.175	0.000	4	24	24.0	5	;
	340	1492	1800	0.120	0.300	0.000	4	24	24.0	5	;
	340	2509	1800	0.200	0.500	0.000	4	24	24.0	5	;
	341	2278	1800	0.120	0.300	0.000	4	24	24.0	5	;
	342	2281	1800	0.240	0.600	0.000	4	24	24.0	5	;
	343	2672	1800	0.050	0.125	0.000	4	24	24.0	5	;
	344	2283	1800	0.050	0.125	0.000	4	24	24.0	5	;
	345	2292	1800	0.110	0.275	0.000	4	24	24.0	5	;
	346	2074	1800	0.150	0.375	0.000	4	24	24.0	5	;
	347	2090	1800	0.130	0.325	0.000	4	24	24.0	5	;
	348	2297	1800	0.050	0.125	0.000	4	24	24.0	5	;
	349	2291	1800	0.070	0.175	0.000	4	24	24.0	5	;
	350	2296	1800	0.100	0.250	0.000	4	24	24.0	5	;
	351	2028	1800	0.190	0.475	0.000	4	24	24.0	5	;
	351	2511	1800	0.230	0.575	0.000	4	24	24.0	5	;
	352	3243	1800	0.200	0.500	0.000	4	24	24.0	5	;
	352	3244	1800	0.220	0.550	0.000	4	24	24.0	5	;
	353	3713	1800	0.170	0.425	0.000	4	24	24.0	5	;
	354	2014	1800	0.160	0.400	0.000	4	24	24.0	5	;
	355	2014	1800	0.280	0.700	0.000	4	24	24.0	5	;
	356	3667	1800	0.140	0.350	0.000	4	24	24.0	5	;
	357	3683	1800	0.230	0.575	0.000	4	24	24.0	5	;
	358	3514	1800	0.260	0.650	0.000	4	24	24.0	5	;
	359	3714	1800	0.400	1.000	0.000	4	24	24.0	5	;
	360	2994	1800	0.170	0.425	0.000	4	24	24.0	5	;
	361	2161	1800	0.230	0.575	0.000	4	24	24.0	5	;
	362	1882	1800	0.490	1.225	0.000	4	24	24.0	5	;
	363	3277	1800	0.250	0.625	0.000	4	24	24.0	5	;
	364	3890	1800	0.050	0.125	0.000	4	24	24.0	5	;
	365	2717	1800	0.230	0.575	0.000	4	24	24.0	5	;
	366	3410	1800	0.130	0.325	0.000	4	24	24.0	5	;
	367	3892	1800	0.140	0.350	0.000	4	24	24.0	5	;
	368	2716	1800	0.130	0.325	0.000	4	24	24.0	5	;
	369	2240	1800	0.330	0.825	0.000	4	24	24.0	5	;
	370	2232	1800	0.240	0.600	0.000	4	24	24.0	5	;
	371	2233	1800	0.370	0.925	0.000	4	24	24.0	5	;
	372	2256	1800	0.140	0.350	0.000	4	24	24.0	5	;
	373	2087	1800	0.150	0.375	0.000	4	24	24.0	5	;
	374	2246	1800	0.080	0.200	0.000	4	24	24.0	5	;
	375	2714	1800	0.160	0.400	0.000	4	24	24.0	5	;
	376	2243	1800	0.160	0.400	0.000	4	24	24.0	5	;
	377	2261	1800	0.260	0.650	0.000	4	24	24.0	5	;
	378	1403	1800	0.110	0.275	0.000	4	24	24.0	5	;
	379	2706	1800	0.250	0.625	0.000	4	24	24.0	5	;
	380	2702	1800	0.300	0.750	0.000	4	24	24.0	5	;
	381	2268	1800	0.140	0.350	0.000	4	24	24.0	5	;
	382	3854	200	0.080	0.200	0.000	4	24	24.0	5	;
	383	2699	1800	0.230	0.575	0.000	4	24	24.0	5	;
	384	2274	1800	0.130	0.325	0.000	4	24	24.0	5	;
	385	2279	1800	0.150	0.375	0.000	4	24	24.0	5	;
	386	2689	1800	0.090	0.225	0.000	4	24	24.0	5	;
	387	4736	1800	0.120	0.300	0.000	4	24	24.0	5	;
	388	2273	1800	0.080	0.200	0.000	4	24	24.0	5	;
	389	1418	1800	0.120	0.300	0.000	4	24	24.0	5	;
	390	2688	1800	0.170	0.425	0.000	4	24	24.0	5	;
	391	2257	1800	0.260	0.650	0.000	4	24	24.0	5	;
	392	2431	1800	0.200	0.500	0.000	4	24	24.0	5	;
	393	3241	1800	0.470	1.175	0.000	4	24	24.0	5	;
	394	3242	1800	0.610	1.525	0.000	4	24	24.0	5	;
	395	2701	1800	0.280	0.700	0.000	4	24	24.0	5	;
	396	3855	1800	0.360	0.900	0.000	4	24	24.0	5	;
	397	2562	1800	0.140	0.350	0.000	4	24	24.0	5	;
	398	2151	1800	0.230	0.575	0.000	4	24	24.0	5	;
	399	3106	1800	0.140	0.350	0.000	4	24	24.0	5	;
	400	2224	1800	0.070	0.175	0.000	4	24	24.0	5	;
	401	2216	1800	0.180	0.450	0.000	4	24	24.0	5	;
	402	2562	1800	0.390	0.975	0.000	4	24	24.0	5	;
	403	2694	1800	0.440	1.100	0.000	4	24	24.0	5	;
	404	3338	1800	0.390	0.975	0.000	4	24	24.0	5	;
	405	1398	1800	0.150	0.375	0.000	4	24	24.0	5	;
	406	2711	1800	0.190	0.475	0.000	4	24	24.0	5	;
	407	2140	1800	0.280	0.700	0.000	4	24	24.0	5	;
	408	3240	1800	0.120	0.300	0.000	4	24	24.0	5	;
	409	3239	1800	0.190	0.475	0.000	4	24	24.0	5	;
	410	1397	1800	0.180	0.450	0.000	4	24	24.0	5	;
	411	2432	1800	0.180	0.450	0.000	4	24	24.0	5	;
	412	3238	1800	0.650	1.625	0.000	4	24	24.0	5	;
	413	4524	1800	0.940	2.350	0.000	4	24	24.0	5	;
	414	2294	1800	0.140	0.350	0.000	4	24	24.0	5	;
	415	4806	1800	0.230	0.575	0.000	4	24	24.0	5	;
	416	4261	1800	0.080	0.200	0.000	4	24	24.0	5	;
	417	2288	1800	0.150	0.375	0.000	4	24	24.0	5	;
	418	4253	1800	0.050	0.125	0.000	4	24	24.0	5	;
	419	4635	1800	0.180	0.450	0.000	4	24	24.0	5	;
	420	2658	1800	0.180	0.450	0.000	4	24	24.0	5	;
	421	2269	1800	0.070	0.175	0.000	4	24	24.0	5	;
	422	4624	1800	0.110	0.275	0.000	4	24	24.0	5	;
	423	3489	1800	0.650	1.625	0.000	4	24	24.0	5	;
	423	3490	1800	0.490	1.225	0.000	4	24	24.0	5	;
	424	3488	1800	0.060	0.150	0.000	4	24	24.0	5	;
	425	3712	1800	0.190	0.475	0.000	4	24	24.0	5	;
	426	2656	1800	0.100	0.250	0.000	4	24	24.0	5	;
	427	2295	1800	0.170	0.425	0.000	4	24	24.0	5	;
	428	2244	1800	0.110	0.275	0.000	4	24	24.0	5	;
	429	4799	1800	0.220	0.550	0.000	4	24	24.0	5	;
	430	4568	1800	0.060	0.150	0.000	4	24	24.0	5	;
	431	2556	1800	0.510	1.275	0.000	4	24	24.0	5	;
	432	1546	1800	0.100	0.250	0.000	4	24	24.0	5	;
	433	2284	1800	0.110	0.275	0.000	4	24	24.0	5	;
	434	1587	1800	0.160	0.400	0.000	4	24	24.0	5	;
	435	1591	1800	0.070	0.175	0.000	4	24	24.0	5	;
	436	1594	1800	0.260	0.650	0.000	4	24	24.0	5	;
	437	1598	1800	0.120	0.300	0.000	4	24	24.0	5	;
	438	2258	1800	0.080	0.200	0.000	4	24	24.0	5	;
	439	2266	1800	0.190	0.475	0.000	4	24	24.0	5	;
	440	1613	1800	0.240	0.600	0.000	4	24	24.0	5	;
	441	1617	1800	0.260	0.650	0.000	4	24	24.0	5	;
	442	3099	1800	0.140	0.350	0.000	4	24	24.0	5	;
	443	2300	1800	0.100	0.250	0.000	4	24	24.0	5	;
	444	3620	1800	0.240	0.600	0.000	4	24	24.0	5	;
	445	3109	1800	0.160	0.400	0.000	4	24	24.0	5	;
	446	2253	1800	0.160	0.400	0.000	4	24	24.0	5	;
	447	3101	1800	0.210	0.525	0.000	4	24	24.0	5	;
	448	1581	1800	0.250	0.625	0.000	4	24	24.0	5	;
	449	3396	1800	0.170	0.425	0.000	4	24	24.0	5	;
	450	3640	1800	0.080	0.200	0.000	4	24	24.0	5	;
	451	3863	1800	0.050	0.125	0.000	4	24	24.0	5	;
	452	3608	1800	0.080	0.200	0.000	4	24	24.0	5	;
	453	1517	1800	0.190	0.475	0.000	4	24	24.0	5	;
	454	2060	1800	0.080	0.200	0.000	4	24	24.0	5	;
	455	2636	1800	0.110	0.275	0.000	4	24	24.0	5	;
	456	2027	1800	0.100	0.250	0.000	4	24	24.0	5	;
	457	2299	1800	0.070	0.175	0.000	4	24	24.0	5	;
	458	3779	1800	0.150	0.375	0.000	4	24	24.0	5	;
	459	1512	1800	0.140	0.350	0.000	4	24	24.0	5	;
	459	1525	400	0.110	0.275	0.000	4	24	24.0	5	;
	460	1534	1800	0.100	0.250	0.000	4	24	24.0	5	;
	461	1531	1800	0.120	0.300	0.000	4	24	24.0	5	;
	462	1531	1800	0.090	0.225	0.000	4	24	24.0	5	;
	462	1541	1800	0.160	0.400	0.000	4	24	24.0	5	;
	462	4577	1800	0.090	0.225	0.000	4	24	24.0	5	;
	462	1508	1800	0.070	0.175	0.000	4	24	24.0	5	;
	463	2452	1800	0.220	0.550	0.000	4	24	24.0	5	;
	464	2063	1800	0.570	1.425	0.000	4	24	24.0	5	;
	465	2063	1800	0.790	1.975	0.000	4	24	24.0	5	;
	466	2323	1800	0.230	0.575	0.000	4	24	24.0	5	;
	467	2323	1800	0.150	0.375	0.000	4	24	24.0	5	;
	468	2322	1800	0.160	0.400	0.000	4	24	24.0	5	;
	469	2321	1800	0.140	0.350	0.000	4	24	24.0	5	;
	470	2629	1800	0.060	0.150	0.000	4	24	24.0	5	;
	471	3248	1800	0.070	0.175	0.000	4	24	24.0	5	;
	472	2342	1800	0.050	0.125	0.000	4	24	24.0	5	;
	473	4683	1800	0.060	0.150	0.000	4	24	24.0	5	;
	474	4680	1800	0.050	0.125	0.000	4	24	24.0	5	;
	475	4681	1800	0.050	0.125	0.000	4	24	24.0	5	;
	476	2335	1800	0.180	0.450	0.000	4	24	24.0	5	;
	477	1688	1800	0.150	0.375	0.000	4	24	24.0	5	;
	478	3251	1800	0.300	0.750	0.000	4	24	24.0	5	;
	479	3250	1800	0.050	0.125	0.000	4	24	24.0	5	;
	480	3249	1800	0.130	0.325	0.000	4	24	24.0	5	;
	481	3249	1800	0.200	0.500	0.000	4	24	24.0	5	;
	482	2071	1800	0.070	0.175	0.000	4	24	24.0	5	;
	483	2327	1800	0.100	0.250	0.000	4	24	24.0	5	;
	484	1696	1800	0.060	0.150	0.000	4	24	24.0	5	;
	485	1697	1800	0.080	0.200	0.000	4	24	24.0	5	;
	486	2627	1800	0.050	0.125	0.000	4	24	24.0	5	;
	487	2496	1800	0.050	0.125	0.000	4	24	24.0	5	;
	488	4591	1800	0.080	0.200	0.000	4	24	24.0	5	;
	489	4595	1800	0.120	0.300	0.000	4	24	24.0	5	;
	490	4659	1800	0.050	0.125	0.000	4	24	24.0	5	;
	491	2348	1800	0.060	0.150	0.000	4	24	24.0	5	;
	492	2349	1800	0.080	0.200	0.000	4	24	24.0	5	;
	493	1714	1800	0.070	0.175	0.000	4	24	24.0	5	;
	494	2337	1800	0.070	0.175	0.000	4	24	24.0	5	;
	494	3398	1800	0.070	0.175	0.000	4	24	24.0	5	;
	495	4660	1800	0.060	0.150	0.000	4	24	24.0	5	;
	496	2338	1800	0.120	0.300	0.000	4	24	24.0	5	;
	496	3395	1800	0.130	0.325	0.000	4	24	24.0	5	;
	497	2328	1800	0.050	0.125	0.000	4	24	24.0	5	;
	498	1713	1800	0.170	0.425	0.000	4	24	24.0	5	;
	499	2337	1800	0.100	0.250	0.000	4	24	24.0	5	;
	499	3397	1800	0.110	0.275	0.000	4	24	24.0	5	;
	500	2340	1800	0.060	0.150	0.000	4	24	24.0	5	;
	501	4661	1800	0.050	0.125	0.000	4	24	24.0	5	;
	502	2352	1800	0.110	0.275	0.000	4	24	24.0	5	;
	503	2340	1800	0.080	0.200	0.000	4	24	24.0	5	;
	504	2353	1800	0.060	0.150	0.000	4	24	24.0	5	;
	505	3253	1800	0.050	0.125	0.000	4	24	24.0	5	;
	506	2586	1800	0.100	0.250	0.000	4	24	24.0	5	;
	506	3253	1800	0.110	0.275	0.000	4	24	24.0	5	;
	507	2344	1800	0.100	0.250	0.000	4	24	24.0	5	;
	508	2588	1800	0.100	0.250	0.000	4	24	24.0	5	;
	508	2623	1800	0.120	0.300	0.000	4	24	24.0	5	;
	509	2346	1800	0.050	0.125	0.000	4	24	24.0	5	;
	510	2334	1800	0.060	0.150	0.000	4	24	24.0	5	;
	511	3642	1800	0.080	0.200	0.000	4	24	24.0	5	;
	512	4604	1800	0.160	0.400	0.000	4	24	24.0	5	;
	513	2354	1800	0.110	0.275	0.000	4	24	24.0	5	;
	514	2355	1800	0.080	0.200	0.000	4	24	24.0	5	;
	515	4606	1800	0.080	0.200	0.000	4	24	24.0	5	;
	516	1733	1800	0.050	0.125	0.000	4	24	24.0	5	;
	517	2351	1800	0.070	0.175	0.000	4	24	24.0	5	;
	518	2351	1800	0.090	0.225	0.000	4	24	24.0	5	;
	519	1737	1800	0.080	0.200	0.000	4	24	24.0	5	;
	520	1738	1800	0.080	0.200	0.000	4	24	24.0	5	;
	521	1739	1800	0.150	0.375	0.000	4	24	24.0	5	;
	522	1740	1800	0.140	0.350	0.000	4	24	24.0	5	;
	523	3096	1800	0.050	0.125	0.000	4	24	24.0	5	;
	524	3785	1800	0.050	0.125	0.000	4	24	24.0	5	;
	525	1736	1800	0.170	0.425	0.000	4	24	24.0	5	;
	526	1741	1800	0.160	0.400	0.000	4	24	24.0	5	;
	527	4663	1800	0.220	0.550	0.000	4	24	24.0	5	;
	528	4662	1800	0.280	0.700	0.000	4	24	24.0	5	;
	529	2311	1800	0.330	0.825	0.000	4	24	24.0	5	;
	530	2065	1800	0.100	0.250	0.000	4	24	24.0	5	;
	531	2320	1800	0.270	0.675	0.000	4	24	24.0	5	;
	532	1728	1800	0.160	0.400	0.000	4	24	24.0	5	;
	533	1727	1800	0.120	0.300	0.000	4	24	24.0	5	;
	534	3326	1800	0.050	0.125	0.000	4	24	24.0	5	;
	535	3252	1800	0.050	0.125	0.000	4	24	24.0	5	;
	536	2319	1800	0.050	0.125	0.000	4	24	24.0	5	;
	537	2310	1800	0.080	0.200	0.000	4	24	24.0	5	;
	538	3327	1800	0.140	0.350	0.000	4	24	24.0	5	;
	539	1722	1800	0.050	0.125	0.000	4	24	24.0	5	;
	540	3246	1800	0.150	0.375	0.000	4	24	24.0	5	;
	541	3866	1800	0.130	0.325	0.000	4	24	24.0	5	;
	542	2617	1800	0.130	0.325	0.000	4	24	24.0	5	;
	543	4752	1800	0.160	0.400	0.000	4	24	24.0	5	;
	544	2314	1800	0.170	0.425	0.000	4	24	24.0	5	;
	545	3778	1800	0.120	0.300	0.000	4	24	24.0	5	;
	546	2967	1800	0.160	0.400	0.000	4	24	24.0	5	;
	547	3392	1800	0.180	0.450	0.000	4	24	24.0	5	;
	548	3404	1800	0.160	0.400	0.000	4	24	24.0	5	;
	549	3403	1800	0.140	0.350	0.000	4	24	24.0	5	;
	550	3266	1800	0.250	0.625	0.000	4	24	24.0	5	;
	551	3268	1800	0.420	1.050	0.000	4	24	24.0	5	;
	552	1794	1800	0.500	1.250	0.000	4	24	24.0	5	;
	553	3268	1800	0.330	0.825	0.000	4	24	24.0	5	;
	554	1828	1800	0.250	0.625	0.000	4	24	24.0	5	;
	555	2585	1800	0.370	0.925	0.000	4	24	24.0	5	;
	556	3623	1800	0.120	0.300	0.000	4	24	24.0	5	;
	557	4167	1800	0.120	0.300	0.000	4	24	24.0	5	;
	558	3406	1800	0.190	0.475	0.000	4	24	24.0	5	;
	559	3427	100	0.170	0.425	0.000	4	24	24.0	5	;
	560	3392	100	0.050	0.125	0.000	4	24	24.0	5	;
	561	2004	400	0.320	0.800	0.000	4	24	24.0	5	;
	561	2003	400	0.300	0.750	0.000	4	24	24.0	5	;
	561	2618	400	0.290	0.725	0.000	4	24	24.0	5	;
	561	2941	400	0.300	0.750	0.000	4	24	24.0	5	;
	561	3156	400	0.370	0.925	0.000	4	24	24.0	5	;
	561	3594	400	0.230	0.575	0.000	4	24	24.0	5	;
	562	3739	100	0.200	0.500	0.000	4	24	24.0	5	;
	563	3575	1800	0.130	0.325	0.000	4	24	24.0	5	;
	564	3384	1800	0.310	0.775	0.000	4	24	24.0	5	;
	565	4546	1800	0.250	0.625	0.000	4	24	24.0	5	;
	566	3321	1800	0.220	0.550	0.000	4	24	24.0	5	;
	567	3158	1800	0.110	0.275	0.000	4	24	24.0	5	;
	568	2242	1800	0.500	1.250	0.000	4	24	24.0	5	;
	569	2242	1800	0.520	1.300	0.000	4	24	24.0	5	;
	570	2242	1800	0.220	0.550	0.000	4	24	24.0	5	;
	571	3269	1800	0.280	0.700	0.000	4	24	24.0	5	;
	572	3408	1800	0.260	0.650	0.000	4	24	24.0	5	;
	573	3560	1800	0.120	0.300	0.000	4	24	24.0	5	;
	574	3853	1800	0.320	0.800	0.000	4	24	24.0	5	;
	575	3357	1800	0.210	0.525	0.000	4	24	24.0	5	;
	576	2252	1800	0.140	0.350	0.000	4	24	24.0	5	;
	577	3270	1800	0.140	0.350	0.000	4	24	24.0	5	;
	578	2263	1800	0.160	0.400	0.000	4	24	24.0	5	;
	579	2277	1800	0.130	0.325	0.000	4	24	24.0	5	;
	580	3390	1800	0.210	0.525	0.000	4	24	24.0	5	;
	581	3393	1800	0.100	0.250	0.000	4	24	24.0	5	;
	582	3258	1800	0.160	0.400	0.000	4	24	24.0	5	;
	583	2290	1800	0.150	0.375	0.000	4	24	24.0	5	;
	584	1837	1800	0.230	0.575	0.000	4	24	24.0	5	;
	585	3211	1800	0.240	0.600	0.000	4	24	24.0	5	;
	586	3322	1800	0.240	0.600	0.000	4	24	24.0	5	;
	587	2301	1800	0.180	0.450	0.000	4	24	24.0	5	;
	588	3121	1800	0.200	0.500	0.000	4	24	24.0	5	;
	589	3259	1800	0.140	0.350	0.000	4	24	24.0	5	;
	590	3746	1800	0.090	0.225	0.000	4	24	24.0	5	;
	591	3743	1800	0.180	0.450	0.000	4	24	24.0	5	;
	592	3159	1800	0.360	0.900	0.000	4	24	24.0	5	;
	593	3302	1800	0.180	0.450	0.000	4	24	24.0	5	;
	594	2306	1800	0.190	0.475	0.000	4	24	24.0	5	;
	595	3325	1800	0.160	0.400	0.000	4	24	24.0	5	;
	596	3335	1800	0.250	0.625	0.000	4	24	24.0	5	;
	597	3334	1800	0.300	0.750	0.000	4	24	24.0	5	;
	598	2170	1800	0.140	0.350	0.000	4	24	24.0	5	;